2024_89_CemigReconfigurationCases/1_SEsCemig/ADOD03/ADOD03SegmentosMT.dss
new line.TR12282975 bus1=BMT8885634B.1.2.3,bus2=BMT1908326B.1.2.3,Phases=3,Linecode=CAB202_3_3,Length=0.056934000,Units=km
new line.TR12282974 bus1=BMT8885633B.1.2.3,bus2=BMT8885634B.1.2.3,Phases=3,Linecode=CAB202_3_3,Length=0.045232000,Units=km
new line.TR12282972 bus1=BMT8885632B.1.2.3,bus2=BMT8885633B.1.2.3,Phases=3,Linecode=CAB202_3_3,Length=0.044932000,Units=km
new line.TR12282969 bus1=BMT166068309.1.2.3,bus2=BMT8885632B.1.2.3,Phases=3,Linecode=CAB202_3_3,Length=0.042069000,Units=km
new line.TR12282968 bus1=BMT8885629B.1.2.3,bus2=BMT3018533B.1.2.3,Phases=3,Linecode=CAB202_3_3,Length=0.019421000,Units=km
new line.TR12282967 bus1=BMT3018540B.1.2.3,bus2=BMT8885629B.1.2.3,Phases=3,Linecode=CAB202_3_3,Length=0.016647000,Units=km
new line.TR12278075 bus1=BMT8881075B.1.2.3,bus2=BMT3490634B.1.2.3,Phases=3,Linecode=CAB202_3_3,Length=0.069946000,Units=km
new line.TR12278074 bus1=BMT170972536.1.2.3,bus2=BMT8881075B.1.2.3,Phases=3,Linecode=CAB202_3_3,Length=0.048458000,Units=km
new line.TR12301610 bus1=BMT8903375B.1,bus2=BMT162532963.1,Phases=1,Linecode=CAB202_3_1,Length=0.086751000,Units=km
new line.TR12301609 bus1=BMT162532961.1,bus2=BMT8903375B.1,Phases=1,Linecode=CAB202_3_1,Length=0.135068000,Units=km
new line.TR12301606 bus1=BMT162532961.1,bus2=BMT162532962.1,Phases=1,Linecode=CAB202_3_1,Length=0.108366000,Units=km
new line.TR12301605 bus1=BMT1909089B.1,bus2=BMT162532961.1,Phases=1,Linecode=CAB202_3_1,Length=0.112497000,Units=km
new line.TR12297056 bus1=BMT174462513.3,bus2=BMT174462515.3,Phases=1,Linecode=CAB202_3_1,Length=0.112481000,Units=km
new line.TR12296444 bus1=BMT172709414.1.2.3,bus2=BMT172709415.1.2.3,Phases=3,Linecode=CAB202_3_3,Length=0.109814000,Units=km
new line.TR12291275 bus1=BMT156189605.1,bus2=BMT156189608.1,Phases=1,Linecode=CAB103_3_1,Length=0.080080000,Units=km
new line.TR12291273 bus1=BMT156189605.1.2.3,bus2=BMT156189607.1.2.3,Phases=3,Linecode=CAB202_3_3,Length=0.131410000,Units=km
new line.TR12291272 bus1=BMT2624230B.1.2.3,bus2=BMT156189605.1.2.3,Phases=3,Linecode=CAB202_3_3,Length=0.128298000,Units=km
new line.TR12290968 bus1=BMT8892806B.2,bus2=BMT2698353B.2,Phases=1,Linecode=CAB202_3_1,Length=0.167085000,Units=km
new line.TR12290967 bus1=BMT156191239.2,bus2=BMT8892806B.2,Phases=1,Linecode=CAB202_3_1,Length=0.003163000,Units=km
new line.TR12287189 bus1=BMT175311868.2,bus2=BMT175311869.2,Phases=1,Linecode=CAB202_3_1,Length=0.033036000,Units=km
new line.TR12287188 bus1=BMT3076885B.2,bus2=BMT175311868.2,Phases=1,Linecode=CAB202_3_1,Length=0.052114000,Units=km
new line.TR12284245 bus1=BMT159920383.1.2.3,bus2=BMT159920382.1.2.3,Phases=3,Linecode=CABA06_3_3,Length=0.035391000,Units=km
new line.TR12284242 bus1=BMT3019597B.1.2.3,bus2=BMT156162137.1.2.3,Phases=3,Linecode=CABA06_3_3,Length=0.033978000,Units=km
new line.TR12284241 bus1=BMT2862426B.1.2.3,bus2=BMT3019597B.1.2.3,Phases=3,Linecode=CABA06_3_3,Length=0.027319000,Units=km
new line.TR12284239 bus1=BMT72926B.1.2.3,bus2=BMT2862426B.1.2.3,Phases=3,Linecode=CABA06_3_3,Length=0.040171000,Units=km
new line.TR12284163 bus1=BMT8886863B.1.2.3,bus2=BMT169582582.1.2.3,Phases=3,Linecode=CAB204_3_3,Length=0.089578000,Units=km
new line.TR12284162 bus1=BMT8886864B.1.2.3,bus2=BMT8886863B.1.2.3,Phases=3,Linecode=CAB204_3_3,Length=0.082479000,Units=km
new line.TR12284161 bus1=BMT8886865B.1.2.3,bus2=BMT8886864B.1.2.3,Phases=3,Linecode=CAB204_3_3,Length=0.100150000,Units=km
new line.TR12284160 bus1=BMT8886866B.1.2.3,bus2=BMT8886865B.1.2.3,Phases=3,Linecode=CAB204_3_3,Length=0.113160000,Units=km
new line.TR12284159 bus1=BMT8886867B.1.2.3,bus2=BMT8886866B.1.2.3,Phases=3,Linecode=CAB204_3_3,Length=0.134563000,Units=km
new line.TR12284158 bus1=BMT169582581.1.2.3,bus2=BMT8886867B.1.2.3,Phases=3,Linecode=CAB204_3_3,Length=0.176274000,Units=km
new line.TR12284150 bus1=BMT169582581.3,bus2=BMT8886881B.3,Phases=1,Linecode=CAB103_3_1,Length=0.017893000,Units=km
new line.TR12284145 bus1=BMT169582592.1.2.3,bus2=BMT169582590.1.2.3,Phases=3,Linecode=CAB204_3_3,Length=0.088771000,Units=km
new line.TR12275010 bus1=BMT8878350B.1,bus2=BMT153931545.1,Phases=1,Linecode=CAB202_3_1,Length=0.385965000,Units=km
new line.TR12275008 bus1=BMT8878348B.1,bus2=BMT8878350B.1,Phases=1,Linecode=CAB202_3_1,Length=0.033279000,Units=km
new line.TR12275006 bus1=BMT8878260B.1,bus2=BMT8878348B.1,Phases=1,Linecode=CAB202_3_1,Length=0.045052000,Units=km
new line.TR12274925 bus1=BMT8878249B.1,bus2=BMT8878260B.1,Phases=1,Linecode=CAB202_3_1,Length=0.278286000,Units=km
new line.TR12274924 bus1=BMT8878241B.1,bus2=BMT8878249B.1,Phases=1,Linecode=CAB202_3_1,Length=0.455975000,Units=km
new line.TR12274923 bus1=BMT8878232B.1,bus2=BMT8878241B.1,Phases=1,Linecode=CAB202_3_1,Length=0.360154000,Units=km
new line.TR12274902 bus1=BMT8878219B.1,bus2=BMT8878232B.1,Phases=1,Linecode=CAB202_3_1,Length=0.181137000,Units=km
new line.TR12274896 bus1=BMT8878210B.1,bus2=BMT8878219B.1,Phases=1,Linecode=CAB202_3_1,Length=0.144227000,Units=km
new line.TR12274870 bus1=BMT153931544.1,bus2=BMT8878210B.1,Phases=1,Linecode=CAB202_3_1,Length=0.235923000,Units=km
new line.TR12271194 bus1=BMT161110182.1,bus2=BMT161110184.1,Phases=1,Linecode=CAB103_3_1,Length=0.050378000,Units=km
new line.TR12263513 bus1=BMT156191110.3,bus2=BMT156191119.3,Phases=1,Linecode=CAB103_3_1,Length=0.034066000,Units=km
new line.TR12256539 bus1=BMT159435084.1,bus2=BMT159435086.1,Phases=1,Linecode=CAB202_3_1,Length=0.296259000,Units=km
new line.TR12256353 bus1=BMT8857883B.1,bus2=BMT160783230.1,Phases=1,Linecode=CAB202_3_1,Length=0.260184000,Units=km
new line.TR12256352 bus1=BMT160783228.1,bus2=BMT8857883B.1,Phases=1,Linecode=CAB202_3_1,Length=0.233002000,Units=km
new line.TR12256343 bus1=BMT160783228.1,bus2=BMT160783229.1,Phases=1,Linecode=CAB202_3_1,Length=0.264760000,Units=km
new line.TR12256342 bus1=BMT160783224.1,bus2=BMT160783228.1,Phases=1,Linecode=CAB202_3_1,Length=0.060891000,Units=km
new line.TR12233546 bus1=BMT160405724.2,bus2=BMT160405726.2,Phases=1,Linecode=CAB202_3_1,Length=0.245207000,Units=km
new line.TR12137431 bus1=BMT8731099B.1,bus2=BMT8731100B.1,Phases=1,Linecode=CABA06_3_1,Length=0.037507000,Units=km
new line.TR12137428 bus1=BMT8731097B.1,bus2=BMT8731099B.1,Phases=1,Linecode=CABA06_3_1,Length=0.030835000,Units=km
new line.TR12137427 bus1=BMT8731094B.1,bus2=BMT8731097B.1,Phases=1,Linecode=CABA06_3_1,Length=0.028610000,Units=km
new line.TR12137425 bus1=BMT163087363.1,bus2=BMT8731094B.1,Phases=1,Linecode=CABA06_3_1,Length=0.036845000,Units=km
new line.TR12137423 bus1=BMT8731081B.1,bus2=BMT163087363.1,Phases=1,Linecode=CABA06_3_1,Length=0.036262000,Units=km
new line.TR12137420 bus1=BMT8731078B.1,bus2=BMT8731081B.1,Phases=1,Linecode=CABA06_3_1,Length=0.036248000,Units=km
new line.TR12137419 bus1=BMT8731077B.1,bus2=BMT8731078B.1,Phases=1,Linecode=CABA06_3_1,Length=0.039352000,Units=km
new line.TR12137418 bus1=BMT8731076B.1,bus2=BMT8731077B.1,Phases=1,Linecode=CABA06_3_1,Length=0.039140000,Units=km
new line.TR12137413 bus1=BMT163087362.1,bus2=BMT8731076B.1,Phases=1,Linecode=CABA06_3_1,Length=0.038412000,Units=km
new line.TR12326388 bus1=BMT174374035.2,bus2=BMT174374037.2,Phases=1,Linecode=CAB202_3_1,Length=0.240417000,Units=km
new line.TR12326382 bus1=BMT174374035.2,bus2=BMT174374036.2,Phases=1,Linecode=CAB202_3_1,Length=0.192221000,Units=km
new line.TR12326381 bus1=BMT3399725B.2,bus2=BMT174374035.2,Phases=1,Linecode=CAB202_3_1,Length=0.089524000,Units=km
new line.TR12322120 bus1=BMT156189372.3,bus2=BMT156189373.3,Phases=1,Linecode=CAB103_3_1,Length=0.050618000,Units=km
new line.TR12322115 bus1=BMT8922728B.3,bus2=BMT156189372.3,Phases=1,Linecode=CAB202_3_1,Length=0.127325000,Units=km
new line.TR12322111 bus1=BMT8922726B.3,bus2=BMT8922728B.3,Phases=1,Linecode=CAB202_3_1,Length=0.160759000,Units=km
new line.TR12322110 bus1=BMT156189371.3,bus2=BMT8922726B.3,Phases=1,Linecode=CAB202_3_1,Length=0.050027000,Units=km
new line.TR12322109 bus1=BMT176515977.3,bus2=BMT156189251.3,Phases=1,Linecode=CAB202_3_1,Length=0.112214000,Units=km
new line.TR12320996 bus1=BMT158879298.1,bus2=BMT158879302.1,Phases=1,Linecode=CAB103_3_1,Length=0.026006000,Units=km
new line.TR12319764 bus1=BMT156309144.2,bus2=BMT156309148.2,Phases=1,Linecode=CAB103_3_1,Length=0.030007000,Units=km
new line.TR12316085 bus1=BMT8917761B.1,bus2=BMT160832124.1,Phases=1,Linecode=CAB103_3_1,Length=0.008259000,Units=km
new line.TR12316084 bus1=BMT160832122.1,bus2=BMT8917761B.1,Phases=1,Linecode=CAB103_3_1,Length=0.005107000,Units=km
new line.TR12315668 bus1=BMT159920376.1,bus2=BMT159920378.1,Phases=1,Linecode=CAB103_3_1,Length=0.023266000,Units=km
new line.TR12315655 bus1=BMT8915332B.1.2.3,bus2=BMT159920377.1.2.3,Phases=3,Linecode=CAB204_3_3,Length=0.064335000,Units=km
new line.TR12315642 bus1=BMT8915329B.1.2.3,bus2=BMT8915332B.1.2.3,Phases=3,Linecode=CAB204_3_3,Length=0.190174000,Units=km
new line.TR12315639 bus1=BMT8915331B.1.2.3,bus2=BMT8915329B.1.2.3,Phases=3,Linecode=CAB204_3_3,Length=0.073608000,Units=km
new line.TR12315638 bus1=BMT8915325B.1.2.3,bus2=BMT8915331B.1.2.3,Phases=3,Linecode=CAB204_3_3,Length=0.071797000,Units=km
new line.TR12315637 bus1=BMT8915322B.1.2.3,bus2=BMT8915325B.1.2.3,Phases=3,Linecode=CAB204_3_3,Length=0.378030000,Units=km
new line.TR12315634 bus1=BMT8915319B.1.2.3,bus2=BMT8915322B.1.2.3,Phases=3,Linecode=CAB204_3_3,Length=0.254675000,Units=km
new line.TR12315633 bus1=BMT8915315B.1.2.3,bus2=BMT8915319B.1.2.3,Phases=3,Linecode=CAB204_3_3,Length=0.075627000,Units=km
new line.TR12315632 bus1=BMT8915314B.1.2.3,bus2=BMT8915315B.1.2.3,Phases=3,Linecode=CAB204_3_3,Length=0.068434000,Units=km
new line.TR12315631 bus1=BMT8915312B.1.2.3,bus2=BMT8915314B.1.2.3,Phases=3,Linecode=CAB204_3_3,Length=0.165307000,Units=km
new line.TR12315630 bus1=BMT159920376.1.2.3,bus2=BMT8915312B.1.2.3,Phases=3,Linecode=CAB204_3_3,Length=0.187922000,Units=km
new line.TR12315436 bus1=BMT159546431.1,bus2=BMT159546434.1,Phases=1,Linecode=CAB103_3_1,Length=0.072906000,Units=km
new line.TR12315320 bus1=BMT8917022B.1.2.3,bus2=BMT175039861.1.2.3,Phases=3,Linecode=CAB204_3_3,Length=0.158877000,Units=km
new line.TR12315319 bus1=BMT8915279B.1.2.3,bus2=BMT8917022B.1.2.3,Phases=3,Linecode=CAB204_3_3,Length=0.075903000,Units=km
new line.TR12315299 bus1=BMT8917016B.1.2.3,bus2=BMT8917017B.1.2.3,Phases=3,Linecode=CAB204_3_3,Length=0.119052000,Units=km
new line.TR12315274 bus1=BMT8886896B.1.2.3,bus2=BMT8915276B.1.2.3,Phases=3,Linecode=CAB204_3_3,Length=0.120722000,Units=km
new line.TR12315220 bus1=BMT8915275B.1.2.3,bus2=BMT8886896B.1.2.3,Phases=3,Linecode=CAB204_3_3,Length=0.111653000,Units=km
new line.TR12315213 bus1=BMT8915273B.1.2.3,bus2=BMT8915275B.1.2.3,Phases=3,Linecode=CAB204_3_3,Length=0.111140000,Units=km
new line.TR12315186 bus1=BMT8915272B.1.2.3,bus2=BMT8915273B.1.2.3,Phases=3,Linecode=CAB204_3_3,Length=0.174418000,Units=km
new line.TR12315185 bus1=BMT8916907B.1.2.3,bus2=BMT8915272B.1.2.3,Phases=3,Linecode=CAB204_3_3,Length=0.149499000,Units=km
new line.TR12315184 bus1=BMT175039860.1.2.3,bus2=BMT8916907B.1.2.3,Phases=3,Linecode=CAB204_3_3,Length=0.154907000,Units=km
new line.TR12315182 bus1=BMT169582592.1.2.3,bus2=BMT161137071.1.2.3,Phases=3,Linecode=CAB204_3_3,Length=0.139234000,Units=km
new line.TR12313364 bus1=BMT3471874B.1.2.3,bus2=BMT3471888B.1.2.3,Phases=3,Linecode=CAB204_3_3,Length=0.093370000,Units=km
new line.TR12313346 bus1=BMT156190099.1.2.3,bus2=BMT163226387.1.2.3,Phases=3,Linecode=CAB204_3_3,Length=0.044157000,Units=km
new line.TR12313345 bus1=BMT3385333B.1.2.3,bus2=BMT175571785.1.2.3,Phases=3,Linecode=CAB204_3_3,Length=0.043941000,Units=km
new line.TR12313335 bus1=BMT8915340B.1.2.3,bus2=BMT159920379.1.2.3,Phases=3,Linecode=CAB204_3_3,Length=0.032199000,Units=km
new line.TR12313334 bus1=BMT3019576B.1.2.3,bus2=BMT8915340B.1.2.3,Phases=3,Linecode=CAB204_3_3,Length=0.388569000,Units=km
new line.TR12313330 bus1=BMT159920377.2,bus2=BMT159920380.2,Phases=1,Linecode=CAB103_3_1,Length=0.014220000,Units=km
new line.TR12313329 bus1=BMT159920379.1.2.3,bus2=BMT159920377.1.2.3,Phases=3,Linecode=CAB204_3_3,Length=0.072844000,Units=km
new line.TR12313296 bus1=BMT1908102B.1.2.3,bus2=BMT159920376.1.2.3,Phases=3,Linecode=CAB204_3_3,Length=0.174132000,Units=km
new line.TR12313290 bus1=BMT8915297B.1.2.3,bus2=BMT8915296B.1.2.3,Phases=3,Linecode=CAB204_3_3,Length=0.396220000,Units=km
new line.TR12313289 bus1=BMT3408034B.1.2.3,bus2=BMT8915297B.1.2.3,Phases=3,Linecode=CAB204_3_3,Length=0.120135000,Units=km
new line.TR12313288 bus1=BMT8915296B.1.2.3,bus2=BMT175039864.1.2.3,Phases=3,Linecode=CAB204_3_3,Length=0.030073000,Units=km
new line.TR12313286 bus1=BMT8915295B.1.2.3,bus2=BMT2812838B.1.2.3,Phases=3,Linecode=CAB204_3_3,Length=0.297053000,Units=km
new line.TR12313285 bus1=BMT175039862.1.2.3,bus2=BMT8915295B.1.2.3,Phases=3,Linecode=CAB204_3_3,Length=0.029921000,Units=km
new line.TR12313284 bus1=BMT8915294B.1.2.3,bus2=BMT2812845B.1.2.3,Phases=3,Linecode=CAB204_3_3,Length=0.338316000,Units=km
new line.TR12313283 bus1=BMT2812838B.1.2.3,bus2=BMT8915294B.1.2.3,Phases=3,Linecode=CAB204_3_3,Length=0.149939000,Units=km
new line.TR12313217 bus1=BMT8915255B.1.2.3,bus2=BMT8915251B.1.2.3,Phases=3,Linecode=CAB204_3_3,Length=0.448122000,Units=km
new line.TR12313216 bus1=BMT156190218.1.2.3,bus2=BMT8915255B.1.2.3,Phases=3,Linecode=CAB204_3_3,Length=0.070110000,Units=km
new line.TR12313210 bus1=BMT8915247B.1,bus2=BMT169582585.1,Phases=1,Linecode=CAB202_3_1,Length=0.278314000,Units=km
new line.TR12313207 bus1=BMT169582582.1,bus2=BMT8915247B.1,Phases=1,Linecode=CAB202_3_1,Length=0.115941000,Units=km
new line.TR12313206 bus1=BMT8915245B.1.2.3,bus2=BMT169582584.1.2.3,Phases=3,Linecode=CAB204_3_3,Length=0.144376000,Units=km
new line.TR12313205 bus1=BMT169582582.1.2.3,bus2=BMT8915245B.1.2.3,Phases=3,Linecode=CAB204_3_3,Length=0.124927000,Units=km
new line.TR12313203 bus1=BMT8915243B.1.2.3,bus2=BMT169582581.1.2.3,Phases=3,Linecode=CAB204_3_3,Length=0.120245000,Units=km
new line.TR12313202 bus1=BMT169582578.1.2.3,bus2=BMT8915243B.1.2.3,Phases=3,Linecode=CAB204_3_3,Length=0.122475000,Units=km
new line.TR12313201 bus1=BMT156190207.1.2.3,bus2=BMT169582578.1.2.3,Phases=3,Linecode=CAB204_3_3,Length=0.141693000,Units=km
new line.TR12313197 bus1=BMT8915238B.1.2.3,bus2=BMT156190207.1.2.3,Phases=3,Linecode=CAB204_3_3,Length=0.077109000,Units=km
new line.TR12313196 bus1=BMT169582577.1.2.3,bus2=BMT8915238B.1.2.3,Phases=3,Linecode=CAB204_3_3,Length=0.070821000,Units=km
new line.TR12309943 bus1=BMT8910031B.1.2.3,bus2=BMT168383538.1.2.3,Phases=3,Linecode=CABA06_3_3,Length=0.037708000,Units=km
new line.TR12308079 bus1=BMT8910030B.1.2.3,bus2=BMT8910031B.1.2.3,Phases=3,Linecode=CABA06_3_3,Length=0.037924000,Units=km
new line.TR12308075 bus1=BMT168383536.1.2.3,bus2=BMT8910030B.1.2.3,Phases=3,Linecode=CABA06_3_3,Length=0.005131000,Units=km
new line.TR12308074 bus1=BMT168383536.1.2.3,bus2=BMT168383537.1.2.3,Phases=3,Linecode=CABA06_3_3,Length=0.026033000,Units=km
new line.TR12308073 bus1=BMT8910027B.1.2.3,bus2=BMT168383536.1.2.3,Phases=3,Linecode=CABA06_3_3,Length=0.022875000,Units=km
new line.TR12308071 bus1=BMT8910024B.1.2.3,bus2=BMT8910027B.1.2.3,Phases=3,Linecode=CABA06_3_3,Length=0.011085000,Units=km
new line.TR12308070 bus1=BMT8910024B.1.2.3,bus2=BMT8910026B.1.2.3,Phases=3,Linecode=CABA06_3_3,Length=0.007092000,Units=km
new line.TR12308069 bus1=BMT8910024B.1.2.3,bus2=BMT8910022B.1.2.3,Phases=3,Linecode=CABA06_3_3,Length=0.024495000,Units=km
new line.TR12308068 bus1=BMT8910021B.1.2.3,bus2=BMT8910024B.1.2.3,Phases=3,Linecode=CABA06_3_3,Length=0.008114000,Units=km
new line.TR12308066 bus1=BMT168383534.1.2.3,bus2=BMT8910021B.1.2.3,Phases=3,Linecode=CABA06_3_3,Length=0.037295000,Units=km
new line.TR12301975 bus1=BMT173262550.2,bus2=BMT173262551.2,Phases=1,Linecode=CAB103_3_1,Length=0.040009000,Units=km
new line.TR12301974 bus1=BMT173262548.2,bus2=BMT173262550.2,Phases=1,Linecode=CAB202_3_1,Length=0.109872000,Units=km
new line.TR12301973 bus1=BMT173262548.2,bus2=BMT173262549.2,Phases=1,Linecode=CAB202_3_1,Length=0.079596000,Units=km
new line.TR12301972 bus1=BMT173262545.2,bus2=BMT173262548.2,Phases=1,Linecode=CAB202_3_1,Length=0.200538000,Units=km
new line.TR12301734 bus1=BMT157170821.1,bus2=BMT172709140.1,Phases=1,Linecode=CAB202_3_1,Length=0.308466000,Units=km
new line.TR12333286 bus1=BMT156190342.1,bus2=BMT156190343.1,Phases=1,Linecode=CAB202_3_1,Length=0.029624000,Units=km
new line.TR12333282 bus1=BMT156190341.1,bus2=BMT156190342.1,Phases=1,Linecode=CAB202_3_1,Length=0.010828000,Units=km
new line.TR12328901 bus1=BMT175947191.2,bus2=BMT175947193.2,Phases=1,Linecode=CAB103_3_1,Length=0.010471000,Units=km
new line.TR12328900 bus1=BMT175947191.2,bus2=BMT175947192.2,Phases=1,Linecode=CAB202_3_1,Length=0.069345000,Units=km
new line.TR12328899 bus1=BMT175947189.2,bus2=BMT175947191.2,Phases=1,Linecode=CAB202_3_1,Length=0.061246000,Units=km
new line.TR12333287 bus1=BMT156190342.1,bus2=BMT156190344.1,Phases=1,Linecode=CAB202_3_1,Length=0.301041000,Units=km
new line.TR12336548 bus1=BMT176515970.3,bus2=BMT8938781B.3,Phases=1,Linecode=CAB202_3_1,Length=0.208305000,Units=km
new line.TR12336550 bus1=BMT8938781B.3,bus2=BMT176515974.3,Phases=1,Linecode=CAB202_3_1,Length=0.219909000,Units=km
new line.TR12337211 bus1=BMT174759290.1,bus2=BMT174759291.1,Phases=1,Linecode=CAB202_3_1,Length=0.226415000,Units=km
new line.TR12117036 bus1=BMT174462511.3,bus2=BMT174462538.3,Phases=1,Linecode=CAB103_3_1,Length=0.035629000,Units=km
new line.TR12117035 bus1=BMT174462511.3,bus2=BMT174462537.3,Phases=1,Linecode=CAB202_3_1,Length=0.037495000,Units=km
new line.TR12117034 bus1=BMT1918413B.3,bus2=BMT174462511.3,Phases=1,Linecode=CAB202_3_1,Length=0.022377000,Units=km
new line.TR12520975 bus1=BMT163363718.1,bus2=BMT163363721.1,Phases=1,Linecode=CAB103_3_1,Length=0.080720000,Units=km
new line.TR12367917 bus1=BMT157170884.1,bus2=BMT157170885.1,Phases=1,Linecode=CAB202_3_1,Length=0.324654000,Units=km
new line.TR12448344 bus1=BMT160014977.1,bus2=BMT160014981.1,Phases=1,Linecode=CAB202_3_1,Length=0.170691000,Units=km
new line.TR12233042 bus1=BMT75481B.1.2.3,bus2=BMT156191117.1.2.3,Phases=3,Linecode=CABA06_3_3,Length=0.025826000,Units=km
new line.TR12233041 bus1=BMT7543906B.1.2.3,bus2=BMT75481B.1.2.3,Phases=3,Linecode=CABA06_3_3,Length=0.026179000,Units=km
new line.TR12233040 bus1=BMT8834526B.1.2.3,bus2=BMT7543906B.1.2.3,Phases=3,Linecode=CABA06_3_3,Length=0.018389000,Units=km
new line.TR12233039 bus1=BMT156191115.1.2.3,bus2=BMT8834526B.1.2.3,Phases=3,Linecode=CABA06_3_3,Length=0.015144000,Units=km
new line.TR12221195 bus1=BMT156190583.2,bus2=BMT156190585.2,Phases=1,Linecode=CAB202_3_1,Length=0.201115000,Units=km
new line.TR12221193 bus1=BMT156190585.2,bus2=BMT156190587.2,Phases=1,Linecode=CAB202_3_1,Length=0.041119000,Units=km
new line.TR12221192 bus1=BMT1908739B.2,bus2=BMT156190585.2,Phases=1,Linecode=CAB202_3_1,Length=0.019110000,Units=km
new line.TR12217272 bus1=BMT8817480B.3,bus2=BMT163101022.3,Phases=1,Linecode=CAB202_3_1,Length=0.171207000,Units=km
new line.TR12217264 bus1=BMT8817479B.3,bus2=BMT8817480B.3,Phases=1,Linecode=CAB202_3_1,Length=0.109864000,Units=km
new line.TR12217262 bus1=BMT163101021.3,bus2=BMT8817479B.3,Phases=1,Linecode=CAB202_3_1,Length=0.118373000,Units=km
new line.TR12217260 bus1=BMT163101018.3,bus2=BMT163101021.3,Phases=1,Linecode=CAB103_3_1,Length=0.047309000,Units=km
new line.TR12214729 bus1=BMT8815160B.1.2.3,bus2=BMT163122603.1.2.3,Phases=3,Linecode=CABA06_3_3,Length=0.033023000,Units=km
new line.TR12214728 bus1=BMT8815159B.1.2.3,bus2=BMT8815160B.1.2.3,Phases=3,Linecode=CABA06_3_3,Length=0.036505000,Units=km
new line.TR12214727 bus1=BMT3009615B.1.2.3,bus2=BMT8815159B.1.2.3,Phases=3,Linecode=CABA06_3_3,Length=0.013042000,Units=km
new line.TR12214721 bus1=BMT72919B.1.2.3,bus2=BMT3009615B.1.2.3,Phases=3,Linecode=CABA06_3_3,Length=0.041494000,Units=km
new line.TR12214710 bus1=BMT72912B.1.2.3,bus2=BMT72919B.1.2.3,Phases=3,Linecode=CABA06_3_3,Length=0.034490000,Units=km
new line.TR12214708 bus1=BMT163122601.1.2.3,bus2=BMT72912B.1.2.3,Phases=3,Linecode=CABA06_3_3,Length=0.037345000,Units=km
new line.TR12191477 bus1=BMT8775854F.1.2.3,bus2=BMT8775855B.1.2.3,Phases=3,Linecode=CABA08_3_3,Length=0.037700000,Units=km
new line.TR12191476 bus1=BMT8778863D.1.2.3,bus2=BMT8775854F.1.2.3,Phases=3,Linecode=CABA08_3_3,Length=0.029863000,Units=km
new line.TR12185483 bus1=BMT168190175.1.2.3,bus2=BMT168190176.1.2.3,Phases=3,Linecode=CAB207_3_3,Length=0.074944000,Units=km
new line.TR12185480 bus1=BMT168190174.1.2.3,bus2=BMT168190175.1.2.3,Phases=3,Linecode=CABA08_3_3,Length=0.020883000,Units=km
new line.TR12185479 bus1=BMT8776034B.1.2.3,bus2=BMT156188789.1.2.3,Phases=3,Linecode=CABA08_3_3,Length=0.022558000,Units=km
new line.TR12185474 bus1=BMT156188785.1.2.3,bus2=BMT156188786.1.2.3,Phases=3,Linecode=CABA08_3_3,Length=0.025524000,Units=km
new line.TR12185455 bus1=BMT156188788.1.2.3,bus2=BMT8776034B.1.2.3,Phases=3,Linecode=CABA08_3_3,Length=0.025506000,Units=km
new line.TR12185452 bus1=BMT156188786.1.2.3,bus2=BMT156188788.1.2.3,Phases=3,Linecode=CABA08_3_3,Length=0.029635000,Units=km
new line.TR12185449 bus1=BMT8776047B.1.2.3,bus2=BMT156188783.1.2.3,Phases=3,Linecode=CABA08_3_3,Length=0.026506000,Units=km
new line.TR12185446 bus1=BMT8776049B.1.2.3,bus2=BMT8776047B.1.2.3,Phases=3,Linecode=CABA08_3_3,Length=0.025528000,Units=km
new line.TR12185437 bus1=BMT156188787.1.2.3,bus2=BMT156188786.1.2.3,Phases=3,Linecode=CABA06_3_3,Length=0.033379000,Units=km
new line.TR12185431 bus1=BMT8776066B.1.2.3,bus2=BMT160296971.1.2.3,Phases=3,Linecode=CABA06_3_3,Length=0.034071000,Units=km
new line.TR12185430 bus1=BMT8776067B.1.2.3,bus2=BMT8776066B.1.2.3,Phases=3,Linecode=CABA06_3_3,Length=0.032753000,Units=km
new line.TR12185429 bus1=BMT160296972.1.2.3,bus2=BMT8776067B.1.2.3,Phases=3,Linecode=CABA06_3_3,Length=0.031198000,Units=km
new line.TR12185411 bus1=BMT160296972.1.2.3,bus2=BMT160296974.1.2.3,Phases=3,Linecode=CAB104_3_3,Length=0.023646000,Units=km
new line.TR12185410 bus1=BMT8776078B.1.2.3,bus2=BMT160296972.1.2.3,Phases=3,Linecode=CAB104_3_3,Length=0.017069000,Units=km
new line.TR12185409 bus1=BMT131733B.1.2.3,bus2=BMT8776078B.1.2.3,Phases=3,Linecode=CAB104_3_3,Length=0.021500000,Units=km
new line.TR12185367 bus1=BMT8775945B.1.2.3,bus2=BMT159865142.1.2.3,Phases=3,Linecode=CABA08_3_3,Length=0.035667000,Units=km
new line.TR12185363 bus1=BMT159865141.1.2.3,bus2=BMT8775945B.1.2.3,Phases=3,Linecode=CABA08_3_3,Length=0.036291000,Units=km
new line.TR12185359 bus1=BMT159865141.1.2.3,bus2=BMT8776049B.1.2.3,Phases=3,Linecode=CABA08_3_3,Length=0.026978000,Units=km
new line.TR12185356 bus1=BMT8775924B.1.2.3,bus2=BMT159865141.1.2.3,Phases=3,Linecode=CABA08_3_3,Length=0.026978000,Units=km
new line.TR12185352 bus1=BMT159865139.1.2.3,bus2=BMT8775924B.1.2.3,Phases=3,Linecode=CABA08_3_3,Length=0.026978000,Units=km
new line.TR12185350 bus1=BMT8775903B.1.2.3,bus2=BMT159865140.1.2.3,Phases=3,Linecode=CABA08_3_3,Length=0.029110000,Units=km
new line.TR12185349 bus1=BMT8775901B.1.2.3,bus2=BMT8775903B.1.2.3,Phases=3,Linecode=CABA08_3_3,Length=0.028469000,Units=km
new line.TR12185344 bus1=BMT159865139.1.2.3,bus2=BMT8775901B.1.2.3,Phases=3,Linecode=CABA08_3_3,Length=0.036931000,Units=km
new line.TR12185343 bus1=BMT8775877B.1.2.3,bus2=BMT159865139.1.2.3,Phases=3,Linecode=CABA08_3_3,Length=0.026978000,Units=km
new line.TR12185342 bus1=BMT8775855B.1.2.3,bus2=BMT8775877B.1.2.3,Phases=3,Linecode=CABA08_3_3,Length=0.033424000,Units=km
new line.TR12185278 bus1=BMT159865138.1.2.3,bus2=BMT8778863D.1.2.3,Phases=3,Linecode=CABA08_3_3,Length=0.030614000,Units=km
new line.TR12185276 bus1=BMT8778865D.1.2.3,bus2=BMT159865138.1.2.3,Phases=3,Linecode=CABA08_3_3,Length=0.024947000,Units=km
new line.TR12185273 bus1=BMT159865137.1.2.3,bus2=BMT8778865D.1.2.3,Phases=3,Linecode=CABA08_3_3,Length=0.019956000,Units=km
new line.TR12185269 bus1=BMT8775772D.1.2.3,bus2=BMT159865136.1.2.3,Phases=3,Linecode=CABA08_3_3,Length=0.019313000,Units=km
new line.TR12185241 bus1=BMT2911027B.1.2.3,bus2=BMT8775772D.1.2.3,Phases=3,Linecode=CABA08_3_3,Length=0.019434000,Units=km
new line.TR12162814 bus1=BMT168918173.2,bus2=BMT168918175.2,Phases=1,Linecode=CAB103_3_1,Length=0.044609000,Units=km
new line.TR12162812 bus1=BMT168918174.1.2.3,bus2=BMT168918176.1.2.3,Phases=3,Linecode=CAB902_4_3,Length=0.012210000,Units=km
...

new line.TR12190439 bus1=BMT157399225.2,bus2=BMT8790686B.2,Phases=1,Linecode=CABA06_3_1,Length=0.030009000,Units=km
new line.TR12190474 bus1=BMT8790686B.2,bus2=BMT1905638B.2,Phases=1,Linecode=CABA06_3_1,Length=0.082485000,Units=km
new line.TR12272686 bus1=BMT167263224.2,bus2=BMT167263227.2,Phases=1,Linecode=CAB103_3_1,Length=0.027595000,Units=km
new line.TR12320789 bus1=BMT156192299.1,bus2=BMT156192301.1,Phases=1,Linecode=CAB202_3_1,Length=0.155121000,Units=km
new line.TR12329058 bus1=BMT168376198.2,bus2=BMT1911182B.2,Phases=1,Linecode=CAB202_3_1,Length=0.086003000,Units=km
new line.TR12329059 bus1=BMT168376198.2,bus2=BMT3023832B.2,Phases=1,Linecode=CAB202_3_1,Length=0.059090000,Units=km
new line.TR12329060 bus1=BMT168376198.2,bus2=BMT168376200.2,Phases=1,Linecode=CAB202_3_1,Length=0.094410000,Units=km
new line.TR12338016 bus1=BMT158959338.1.2.3,bus2=BMT158959337.1.2.3,Phases=3,Linecode=CABA06_3_3,Length=0.017122000,Units=km
new line.TR12338017 bus1=BMT158959337.1.2.3,bus2=BMT56399B.1.2.3,Phases=3,Linecode=CABA06_3_3,Length=0.031024000,Units=km
new line.TR12448917 bus1=BMT164430237.2,bus2=BMT164430239.2,Phases=1,Linecode=CAB202_3_1,Length=0.084420000,Units=km
new line.TR12545178 bus1=BMT164430205.2,bus2=BMT9154256B.2,Phases=1,Linecode=CAB202_3_1,Length=0.090806000,Units=km
new line.TR12545180 bus1=BMT9154256B.2,bus2=BMT164430207.2,Phases=1,Linecode=CAB202_3_1,Length=0.060262000,Units=km
new line.TR12563335 bus1=BMT168376014.2,bus2=BMT168376015.2,Phases=1,Linecode=CAB103_3_1,Length=0.060737000,Units=km
new line.TR12563336 bus1=BMT168376015.2,bus2=BMT168376016.2,Phases=1,Linecode=CAB202_3_1,Length=0.105660000,Units=km
new line.TR12624471 bus1=BMT167202010.1.2.3,bus2=BMT167202009.1.2.3,Phases=3,Linecode=CABA06_3_3,Length=0.040814000,Units=km
new line.TR12636708 bus1=BMT3022894B.1.2.3,bus2=BMT9247117B.1.2.3,Phases=3,Linecode=CAB204_3_3,Length=0.064273000,Units=km
new line.TR12636709 bus1=BMT9247117B.1.2.3,bus2=BMT9247119B.1.2.3,Phases=3,Linecode=CAB204_3_3,Length=0.081862000,Units=km
new line.TR12636712 bus1=BMT9247119B.1.2.3,bus2=BMT167743309.1.2.3,Phases=3,Linecode=CAB204_3_3,Length=0.064800000,Units=km
new line.TR12636716 bus1=BMT167743309.1.2.3,bus2=BMT9247143B.1.2.3,Phases=3,Linecode=CAB204_3_3,Length=0.245208000,Units=km
new line.TR12636718 bus1=BMT9247143B.1.2.3,bus2=BMT9247150B.1.2.3,Phases=3,Linecode=CAB204_3_3,Length=0.104307000,Units=km
new line.TR12636721 bus1=BMT9247150B.1.2.3,bus2=BMT9247157B.1.2.3,Phases=3,Linecode=CAB204_3_3,Length=0.103380000,Units=km
new line.TR12636728 bus1=BMT9247157B.1.2.3,bus2=BMT9247171B.1.2.3,Phases=3,Linecode=CAB204_3_3,Length=0.062217000,Units=km
new line.TR12636732 bus1=BMT9247171B.1.2.3,bus2=BMT3022873B.1.2.3,Phases=3,Linecode=CAB204_3_3,Length=0.061147000,Units=km
new line.TR12722938 bus1=BMT3244381B.1,bus2=BMT170447329.1,Phases=1,Linecode=CAB202_3_1,Length=0.134816000,Units=km
new line.TR12323090 bus1=BMT173169155.1,bus2=BMT173169158.1,Phases=1,Linecode=CAB103_3_1,Length=0.033431000,Units=km
new line.TR12323084 bus1=BMT173169155.1,bus2=BMT173169157.1,Phases=1,Linecode=CAB103_3_1,Length=0.047895000,Units=km
new line.TR12323083 bus1=BMT173169153.1,bus2=BMT173169155.1,Phases=1,Linecode=CAB103_3_1,Length=0.025087000,Units=km
new line.TR12295689 bus1=BMT8897428B.1.2.3,bus2=BMT8897432B.1.2.3,Phases=3,Linecode=CAB202_3_3,Length=0.142277000,Units=km
new line.TR12295688 bus1=BMT156191011.1.2.3,bus2=BMT8897428B.1.2.3,Phases=3,Linecode=CAB202_3_3,Length=0.116957000,Units=km
new line.TR12295657 bus1=BMT156191004.1.2.3,bus2=BMT156191005.1.2.3,Phases=3,Linecode=CAB202_3_3,Length=0.149811000,Units=km
new line.TR12280376 bus1=BMT163103795.1.2.3,bus2=BMT163103796.1.2.3,Phases=3,Linecode=CAB103_3_3,Length=0.025814000,Units=km
new line.TR12280375 bus1=BMT8883181B.1.2.3,bus2=BMT163103795.1.2.3,Phases=3,Linecode=CAB202_3_3,Length=0.080103000,Units=km
new line.TR12280373 bus1=BMT8883180B.1.2.3,bus2=BMT8883181B.1.2.3,Phases=3,Linecode=CAB202_3_3,Length=0.080648000,Units=km
new line.TR12280372 bus1=BMT163103794.1.2.3,bus2=BMT8883180B.1.2.3,Phases=3,Linecode=CAB202_3_3,Length=0.080732000,Units=km
new line.TR12273929 bus1=BMT75012B.1.2.3,bus2=BMT173535718.1.2.3,Phases=3,Linecode=CABA06_3_3,Length=0.027209000,Units=km
new line.TR12273928 bus1=BMT173535716.1.2.3,bus2=BMT75012B.1.2.3,Phases=3,Linecode=CABA06_3_3,Length=0.025329000,Units=km
new line.TR12272981 bus1=BMT159926779.2,bus2=BMT159926781.2,Phases=1,Linecode=CAB202_3_1,Length=0.109901000,Units=km
new line.TR12272980 bus1=BMT159926777.2,bus2=BMT159926779.2,Phases=1,Linecode=CAB202_3_1,Length=0.119399000,Units=km
new line.TR12272969 bus1=BMT159926776.2,bus2=BMT159926777.2,Phases=1,Linecode=CAB202_3_1,Length=0.101234000,Units=km
new line.TR12272967 bus1=BMT159926775.2,bus2=BMT159926776.2,Phases=1,Linecode=CAB202_3_1,Length=0.209235000,Units=km
new line.TR12271290 bus1=BMT8874917B.2,bus2=BMT168375980.2,Phases=1,Linecode=CAB202_3_1,Length=0.087590000,Units=km
new line.TR12271289 bus1=BMT8874915B.2,bus2=BMT8874917B.2,Phases=1,Linecode=CAB202_3_1,Length=0.142726000,Units=km
new line.TR12271287 bus1=BMT168375978.2,bus2=BMT8874915B.2,Phases=1,Linecode=CAB202_3_1,Length=0.256746000,Units=km
new line.TR12234210 bus1=BMT158959333.1.2.3,bus2=BMT158959335.1.2.3,Phases=3,Linecode=CABA06_3_3,Length=0.025007000,Units=km
new line.TR12234209 bus1=BMT7540350B.1.2.3,bus2=BMT158959333.1.2.3,Phases=3,Linecode=CABA06_3_3,Length=0.019652000,Units=km
new line.TR12231312 bus1=BMT160931658.1.2.3,bus2=BMT160931659.1.2.3,Phases=3,Linecode=CAB103_3_3,Length=0.009897000,Units=km
new line.TR12193818 bus1=BMT8794436B.1.2.3,bus2=BMT156191531.1.2.3,Phases=3,Linecode=CAB202_3_3,Length=0.129434000,Units=km
new line.TR12855066 bus1=BMT174851081.1.2.3,bus2=BMT9445413B.1.2.3,Phases=3,Linecode=CAB204_3_3,Length=0.051879000,Units=km
new line.TR12855067 bus1=BMT9445413B.1.2.3,bus2=BMT1908634B.1.2.3,Phases=3,Linecode=CAB204_3_3,Length=0.057817000,Units=km
new line.TR12193806 bus1=BMT8794434B.1.2.3,bus2=BMT8794436B.1.2.3,Phases=3,Linecode=CAB202_3_3,Length=0.139777000,Units=km
new line.TR12193805 bus1=BMT8794432B.1.2.3,bus2=BMT8794434B.1.2.3,Phases=3,Linecode=CAB202_3_3,Length=0.140220000,Units=km
new line.TR12193804 bus1=BMT8611084B.1.2.3,bus2=BMT8794432B.1.2.3,Phases=3,Linecode=CAB202_3_3,Length=0.129388000,Units=km
new line.TR12193718 bus1=BMT172196486.2,bus2=BMT172196487.2,Phases=1,Linecode=CAB103_3_1,Length=0.036873000,Units=km
new line.TR12193717 bus1=BMT172196484.2,bus2=BMT172196486.2,Phases=1,Linecode=CAB202_3_1,Length=0.260987000,Units=km
new line.TR12152302 bus1=BMT8747904B.1.2.3,bus2=BMT156190980.1.2.3,Phases=3,Linecode=CAB202_3_3,Length=0.120596000,Units=km
new line.TR12152300 bus1=BMT8747890B.1.2.3,bus2=BMT8747904B.1.2.3,Phases=3,Linecode=CAB202_3_3,Length=0.150057000,Units=km
new line.TR12152298 bus1=BMT8747889B.1.2.3,bus2=BMT8747890B.1.2.3,Phases=3,Linecode=CAB202_3_3,Length=0.140177000,Units=km
new line.TR12152295 bus1=BMT8747886B.1.2.3,bus2=BMT8747889B.1.2.3,Phases=3,Linecode=CAB202_3_3,Length=0.119984000,Units=km
new line.TR12152293 bus1=BMT156190978.1.2.3,bus2=BMT8747886B.1.2.3,Phases=3,Linecode=CAB202_3_3,Length=0.201376000,Units=km
new line.TR12152280 bus1=BMT156190978.1.2.3,bus2=BMT156190979.1.2.3,Phases=3,Linecode=CAB202_3_3,Length=0.130186000,Units=km
new line.TR12152279 bus1=BMT3240748B.1.2.3,bus2=BMT156190978.1.2.3,Phases=3,Linecode=CAB202_3_3,Length=0.367271000,Units=km
new line.TR12137927 bus1=BMT156191616.1.2.3,bus2=BMT156191617.1.2.3,Phases=3,Linecode=CAB103_3_3,Length=0.022561000,Units=km
new line.TR12137926 bus1=BMT8731562B.1.2.3,bus2=BMT156191615.1.2.3,Phases=3,Linecode=CAB202_3_3,Length=0.137892000,Units=km
new line.TR12137925 bus1=BMT169521256.1.2.3,bus2=BMT8731562B.1.2.3,Phases=3,Linecode=CAB202_3_3,Length=0.138313000,Units=km
new line.TR12136744 bus1=BMT8730380B.1.2.3,bus2=BMT168782023.1.2.3,Phases=3,Linecode=CAB202_3_3,Length=0.131633000,Units=km
new line.TR12136742 bus1=BMT8730378B.1.2.3,bus2=BMT8730380B.1.2.3,Phases=3,Linecode=CAB202_3_3,Length=0.141748000,Units=km
new line.TR12136739 bus1=BMT8730376B.1.2.3,bus2=BMT8730378B.1.2.3,Phases=3,Linecode=CAB202_3_3,Length=0.144821000,Units=km
new line.TR12136738 bus1=BMT169521257.1.2.3,bus2=BMT8730376B.1.2.3,Phases=3,Linecode=CAB202_3_3,Length=0.127505000,Units=km
new line.TR12136731 bus1=BMT8730370B.1.2.3,bus2=BMT169521257.1.2.3,Phases=3,Linecode=CAB202_3_3,Length=0.149933000,Units=km
new line.TR12136728 bus1=BMT8730368B.1.2.3,bus2=BMT8730370B.1.2.3,Phases=3,Linecode=CAB202_3_3,Length=0.090379000,Units=km
new line.TR12136725 bus1=BMT8730367B.1.2.3,bus2=BMT8730368B.1.2.3,Phases=3,Linecode=CAB202_3_3,Length=0.184832000,Units=km
new line.TR12136722 bus1=BMT8730366B.1.2.3,bus2=BMT8730367B.1.2.3,Phases=3,Linecode=CAB202_3_3,Length=0.139643000,Units=km
new line.TR12136714 bus1=BMT8730365B.1.2.3,bus2=BMT8730366B.1.2.3,Phases=3,Linecode=CAB202_3_3,Length=0.160744000,Units=km
new line.TR12136709 bus1=BMT156191608.1.2.3,bus2=BMT8730365B.1.2.3,Phases=3,Linecode=CAB202_3_3,Length=0.129687000,Units=km
new line.TR12119722 bus1=BMT156190793.1.2.3,bus2=BMT159681332.1.2.3,Phases=3,Linecode=CAB208_3_3,Length=0.009003000,Units=km
new line.TR14 bus1=BMT14B.1.2.3,bus2=BMT156191267.1.2.3,Phases=3,Linecode=CAB103_3_3,Length=0.031961000,Units=km
new line.TR12119335 bus1=BMT3029418B.1.2.3,bus2=BMT8711890B.1.2.3,Phases=3,Linecode=CAB202_3_3,Length=0.115883000,Units=km
new line.TR12119334 bus1=BMT156191801.1.2.3,bus2=BMT8711890B.1.2.3,Phases=3,Linecode=CAB202_3_3,Length=0.005682000,Units=km
new line.TR12424949 bus1=BMT164532673.1.2.3,bus2=BMT75516B.1.2.3,Phases=3,Linecode=CABA06_3_3,Length=0.042389000,Units=km
new line.TR12398951 bus1=BMT159926779.2,bus2=BMT159926782.2,Phases=1,Linecode=CAB202_3_1,Length=0.087438000,Units=km
new line.TR12345839 bus1=BMT164238023.1,bus2=BMT164238025.1,Phases=1,Linecode=CAB103_3_1,Length=0.013104000,Units=km
new line.TR12338235 bus1=BMT158959438.1.2.3,bus2=BMT158959439.1.2.3,Phases=3,Linecode=CAB604_5_3,Length=0.005002000,Units=km
new line.TR12338233 bus1=BMT158959437.1.2.3,bus2=BMT158959438.1.2.3,Phases=3,Linecode=CAB604_5_3,Length=0.005002000,Units=km
new line.TR12338232 bus1=BMT158959436.1.2.3,bus2=BMT158959437.1.2.3,Phases=3,Linecode=CAB604_5_3,Length=0.007002000,Units=km
new line.TR12338231 bus1=BMT158959337.1.2.3,bus2=BMT158959339.1.2.3,Phases=3,Linecode=CABA06_3_3,Length=0.000501000,Units=km
new line.TR12335143 bus1=BMT8937372B.2,bus2=BMT174028824.2,Phases=1,Linecode=CAB202_3_1,Length=0.015060000,Units=km
new line.TR12335142 bus1=BMT174028822.2,bus2=BMT8937372B.2,Phases=1,Linecode=CAB202_3_1,Length=0.115357000,Units=km
new line.TR12334546 bus1=BMT173169153.1,bus2=BMT173169156.1,Phases=1,Linecode=CAB202_3_1,Length=0.214248000,Units=km
new line.TR12327161 bus1=BMT8928219B.1,bus2=BMT157399226.1,Phases=1,Linecode=CABA06_3_1,Length=0.057715000,Units=km
new line.TR12327160 bus1=BMT8928218B.1,bus2=BMT8928219B.1,Phases=1,Linecode=CABA06_3_1,Length=0.042024000,Units=km
new line.TR12327156 bus1=BMT157399224.1,bus2=BMT8928218B.1,Phases=1,Linecode=CABA06_3_1,Length=0.043117000,Units=km
new line.TR12324097 bus1=BMT8925192D.1.2.3,bus2=BMT8724850D.1.2.3,Phases=3,Linecode=CAB907_4_3,Length=0.015005000,Units=km
new line.TR12324096 bus1=BMT8724851D.1.2.3,bus2=BMT8925192D.1.2.3,Phases=3,Linecode=CAB907_4_3,Length=0.014004000,Units=km
new line.TR12301093 bus1=BMT156190736.1.2.3,bus2=BMT8724845D.1.2.3,Phases=3,Linecode=CAB907_4_3,Length=0.014769000,Units=km
new line.TR12295790 bus1=BMT8897476B.1.2.3,bus2=BMT156191006.1.2.3,Phases=3,Linecode=CAB202_3_3,Length=0.087025000,Units=km
new line.TR12295788 bus1=BMT156191005.1.2.3,bus2=BMT8897476B.1.2.3,Phases=3,Linecode=CAB202_3_3,Length=0.079141000,Units=km
new line.TR12295782 bus1=BMT156191013.1.2.3,bus2=BMT156191014.1.2.3,Phases=3,Linecode=CAB103_3_3,Length=0.020254000,Units=km
new line.TR12295777 bus1=BMT8897450B.1.2.3,bus2=BMT156191012.1.2.3,Phases=3,Linecode=CAB202_3_3,Length=0.109591000,Units=km
new line.TR12295763 bus1=BMT8897447B.1.2.3,bus2=BMT8897450B.1.2.3,Phases=3,Linecode=CAB202_3_3,Length=0.088100000,Units=km
new line.TR12295762 bus1=BMT8897432B.1.2.3,bus2=BMT8897447B.1.2.3,Phases=3,Linecode=CAB202_3_3,Length=0.152639000,Units=km
new line.TR12511621 bus1=BMT9119947B.1.2.3,bus2=BMT167262582.1.2.3,Phases=3,Linecode=CAB202_3_3,Length=0.298988000,Units=km
new line.TR12449914 bus1=BMT9057977B.3,bus2=BMT160077831.3,Phases=1,Linecode=CAB202_3_1,Length=0.100241000,Units=km
new line.TR12449909 bus1=BMT160077830.3,bus2=BMT9057977B.3,Phases=1,Linecode=CAB202_3_1,Length=0.115731000,Units=km
new line.TR12407292 bus1=BMT9013906B.2,bus2=BMT159926780.2,Phases=1,Linecode=CAB202_3_1,Length=0.099526000,Units=km
new line.TR12407287 bus1=BMT159926777.2,bus2=BMT9013906B.2,Phases=1,Linecode=CAB202_3_1,Length=0.109579000,Units=km
new line.TR12329170 bus1=BMT168376197.2,bus2=BMT168376198.2,Phases=1,Linecode=CAB202_3_1,Length=0.013420000,Units=km
new line.TR12327311 bus1=BMT157573035.1.2.3,bus2=BMT157573036.1.2.3,Phases=3,Linecode=CAB103_3_3,Length=0.028957000,Units=km
new line.TR12327308 bus1=BMT161236999.1.2.3,bus2=BMT156191592.1.2.3,Phases=3,Linecode=CAB103_3_3,Length=0.050874000,Units=km
new line.TR12327304 bus1=BMT8928316B.1.2.3,bus2=BMT161236999.1.2.3,Phases=3,Linecode=CAB202_3_3,Length=0.073896000,Units=km
new line.TR12327303 bus1=BMT161236995.1.2.3,bus2=BMT8928316B.1.2.3,Phases=3,Linecode=CAB202_3_3,Length=0.079581000,Units=km
new line.TR12327284 bus1=BMT161236994.2,bus2=BMT161236996.2,Phases=1,Linecode=CAB103_3_1,Length=0.016560000,Units=km
new line.TR12327282 bus1=BMT161236996.2,bus2=BMT161236997.2,Phases=1,Linecode=CAB202_3_1,Length=0.063129000,Units=km
new line.TR12327280 bus1=BMT161236994.1.2.3,bus2=BMT3238095B.1.2.3,Phases=3,Linecode=CAB202_3_3,Length=0.102084000,Units=km
new line.TR12327279 bus1=BMT161236993.1.2.3,bus2=BMT161236994.1.2.3,Phases=3,Linecode=CAB103_3_3,Length=0.018848000,Units=km
new line.TR12579860 bus1=BMT165670983.2,bus2=BMT165670984.2,Phases=1,Linecode=CAB202_3_1,Length=0.318242000,Units=km
new line.TR12579859 bus1=BMT165670982.2,bus2=BMT165670983.2,Phases=1,Linecode=CAB202_3_1,Length=0.003607000,Units=km
new line.TR12511577 bus1=BMT9119951B.1.2.3,bus2=BMT9119947B.1.2.3,Phases=3,Linecode=CAB202_3_3,Length=0.130299000,Units=km
new line.TR12511576 bus1=BMT172196942.1.2.3,bus2=BMT9119951B.1.2.3,Phases=3,Linecode=CAB202_3_3,Length=0.114189000,Units=km
new line.TR12511506 bus1=BMT9119971B.1.2.3,bus2=BMT172196942.1.2.3,Phases=3,Linecode=CAB202_3_3,Length=0.110146000,Units=km
new line.TR12511503 bus1=BMT9119974B.1.2.3,bus2=BMT9119971B.1.2.3,Phases=3,Linecode=CAB202_3_3,Length=0.099234000,Units=km
new line.TR12511501 bus1=BMT9119978B.1.2.3,bus2=BMT9119974B.1.2.3,Phases=3,Linecode=CAB202_3_3,Length=0.099377000,Units=km
new line.TR12511490 bus1=BMT9119988B.1.2.3,bus2=BMT9119978B.1.2.3,Phases=3,Linecode=CAB202_3_3,Length=0.147457000,Units=km
new line.TR12511485 bus1=BMT9119995B.1.2.3,bus2=BMT9119988B.1.2.3,Phases=3,Linecode=CAB202_3_3,Length=0.054793000,Units=km
new line.TR12511484 bus1=BMT9119992B.1.2.3,bus2=BMT9119995B.1.2.3,Phases=3,Linecode=CAB202_3_3,Length=0.135891000,Units=km
new line.TR12511478 bus1=BMT172196940.1.2.3,bus2=BMT9119992B.1.2.3,Phases=3,Linecode=CAB202_3_3,Length=0.099567000,Units=km
new line.TR12424973 bus1=BMT75551B.1.2.3,bus2=BMT164532674.1.2.3,Phases=3,Linecode=CABA06_3_3,Length=0.035122000,Units=km
new line.TR12424972 bus1=BMT75530B.1.2.3,bus2=BMT75551B.1.2.3,Phases=3,Linecode=CABA06_3_3,Length=0.037956000,Units=km
new line.TR12424971 bus1=BMT75516B.1.2.3,bus2=BMT75530B.1.2.3,Phases=3,Linecode=CABA06_3_3,Length=0.026577000,Units=km
new line.TR12771321 bus1=BMT9375294B.2,bus2=BMT174476631.2,Phases=1,Linecode=CAB202_3_1,Length=0.100869000,Units=km
new line.TR12771320 bus1=BMT9375293B.2,bus2=BMT9375294B.2,Phases=1,Linecode=CAB202_3_1,Length=0.124495000,Units=km
new line.TR12771319 bus1=BMT9375292B.2,bus2=BMT9375293B.2,Phases=1,Linecode=CAB202_3_1,Length=0.262294000,Units=km
new line.TR12771316 bus1=BMT174476628.2,bus2=BMT9375292B.2,Phases=1,Linecode=CAB202_3_1,Length=0.080164000,Units=km
new line.TR12698487 bus1=BMT169644634.1,bus2=BMT169644635.1,Phases=1,Linecode=CAB103_3_1,Length=0.052214000,Units=km
new line.TR12625970 bus1=BMT172196944.1.2.3,bus2=BMT3020682B.1.2.3,Phases=3,Linecode=CAB202_3_3,Length=0.102866000,Units=km
new line.TR12625969 bus1=BMT172196945.1.2.3,bus2=BMT172196944.1.2.3,Phases=3,Linecode=CAB103_3_3,Length=0.020642000,Units=km
new line.TR12587132 bus1=BMT168376003.2,bus2=BMT3025708B.2,Phases=1,Linecode=CAB202_3_1,Length=0.135182000,Units=km
new line.TR12587131 bus1=BMT168375981.2,bus2=BMT166023129.2,Phases=1,Linecode=CAB202_3_1,Length=0.004168000,Units=km
new line.TR12126716 bus1=BMT168375979.2,bus2=BMT168375982.2,Phases=1,Linecode=CAB202_3_1,Length=0.328488000,Units=km
new line.TR2086357 bus1=BMT172196461.2,bus2=BMT172196462.2,Phases=1,Linecode=CAB202_3_1,Length=0.010021000,Units=km
new line.TR12793980 bus1=BMT174028809.2,bus2=BMT174028811.2,Phases=1,Linecode=CAB103_3_1,Length=0.033562000,Units=km
new line.TR12793977 bus1=BMT174028809.2,bus2=BMT174028810.2,Phases=1,Linecode=CAB202_3_1,Length=0.172893000,Units=km
new line.TR12793976 bus1=BMT9394426B.2,bus2=BMT174028809.2,Phases=1,Linecode=CAB202_3_1,Length=0.109503000,Units=km
new line.TR12793974 bus1=BMT174028805.2,bus2=BMT9394426B.2,Phases=1,Linecode=CAB202_3_1,Length=0.050472000,Units=km
new line.TR12774398 bus1=BMT172196942.1,bus2=BMT172196943.1,Phases=1,Linecode=CAB202_3_1,Length=0.115305000,Units=km
new line.TR12774374 bus1=BMT9377879B.2,bus2=BMT172196495.2,Phases=1,Linecode=CAB202_3_1,Length=0.098256000,Units=km
new line.TR12774371 bus1=BMT9377878B.2,bus2=BMT9377879B.2,Phases=1,Linecode=CAB202_3_1,Length=0.111531000,Units=km
new line.TR12774370 bus1=BMT172196493.2,bus2=BMT9377878B.2,Phases=1,Linecode=CAB202_3_1,Length=0.111131000,Units=km
new line.TR2058868 bus1=BMT156191583.1.2.3,bus2=BMT156191584.1.2.3,Phases=3,Linecode=CAB103_3_3,Length=0.029017000,Units=km
new line.TR12739824 bus1=BMT175430503.3,bus2=BMT175430504.3,Phases=1,Linecode=CAB202_3_1,Length=0.141948000,Units=km
new line.TR12739823 bus1=BMT171063637.1.2.3,bus2=BMT171063638.1.2.3,Phases=3,Linecode=CAB103_3_3,Length=0.030025000,Units=km
new line.TR12739822 bus1=BMT175430503.1.2.3,bus2=BMT171063626.1.2.3,Phases=3,Linecode=CAB103_3_3,Length=0.035458000,Units=km
new line.TR12739821 bus1=BMT9347224B.1.2.3,bus2=BMT175430503.1.2.3,Phases=3,Linecode=CAB202_3_3,Length=0.261802000,Units=km
new line.TR12739796 bus1=BMT175430501.1.2.3,bus2=BMT1906429B.1.2.3,Phases=3,Linecode=CAB202_3_3,Length=0.032313000,Units=km
new line.TR12739795 bus1=BMT171060882.1.2.3,bus2=BMT3411898B.1.2.3,Phases=3,Linecode=CAB202_3_3,Length=0.126719000,Units=km
new line.TR12739793 bus1=BMT176605523.1.2.3,bus2=BMT171060882.1.2.3,Phases=3,Linecode=CAB202_3_3,Length=0.097283000,Units=km
new line.TR12739773 bus1=BMT3245046B.1.2.3,bus2=BMT9347224B.1.2.3,Phases=3,Linecode=CAB202_3_3,Length=0.069659000,Units=km
new line.TR2058875 bus1=BMT2752645B.1.2.3,bus2=BMT156191581.1.2.3,Phases=3,Linecode=CAB202_3_3,Length=0.081099000,Units=km
new line.TR12695004 bus1=BMT169521333.1.2.3,bus2=BMT169521334.1.2.3,Phases=3,Linecode=CAB103_3_3,Length=0.014870000,Units=km
new line.TR12680328 bus1=BMT169052102.3,bus2=BMT169052103.3,Phases=1,Linecode=CAB103_3_1,Length=0.063765000,Units=km
new line.TR12638882 bus1=BMT171742205.3,bus2=BMT171742206.3,Phases=1,Linecode=CAB103_3_1,Length=0.011708000,Units=km
new line.TR12638881 bus1=BMT9249373B.3,bus2=BMT171742205.3,Phases=1,Linecode=CAB202_3_1,Length=0.089866000,Units=km
new line.TR12638878 bus1=BMT9249371B.3,bus2=BMT9249373B.3,Phases=1,Linecode=CAB202_3_1,Length=0.100369000,Units=km
new line.TR12638868 bus1=BMT171742203.3,bus2=BMT9249371B.3,Phases=1,Linecode=CAB202_3_1,Length=0.139394000,Units=km
new line.TR12638391 bus1=BMT168074409.1.2.3,bus2=BMT168074410.1.2.3,Phases=3,Linecode=CAB103_3_3,Length=0.025629000,Units=km
new line.TR12638390 bus1=BMT9248819B.1.2.3,bus2=BMT167743311.1.2.3,Phases=3,Linecode=CAB202_3_3,Length=0.239585000,Units=km
new line.TR12638389 bus1=BMT9248818B.1.2.3,bus2=BMT9248819B.1.2.3,Phases=3,Linecode=CAB202_3_3,Length=0.091023000,Units=km
new line.TR12638387 bus1=BMT167743309.1.2.3,bus2=BMT9248818B.1.2.3,Phases=3,Linecode=CAB202_3_3,Length=0.089298000,Units=km
new line.TR12631840 bus1=BMT9241863B.1.2.3,bus2=BMT169644622.1.2.3,Phases=3,Linecode=CAB103_3_3,Length=0.050270000,Units=km
new line.TR12631839 bus1=BMT169644620.1.2.3,bus2=BMT9241863B.1.2.3,Phases=3,Linecode=CAB103_3_3,Length=0.064056000,Units=km
new line.TR12592824 bus1=BMT9201804B.1.2.3,bus2=BMT166759311.1.2.3,Phases=3,Linecode=CAB202_3_3,Length=0.240198000,Units=km
new line.TR12592823 bus1=BMT9201803B.1.2.3,bus2=BMT9201804B.1.2.3,Phases=3,Linecode=CAB202_3_3,Length=0.062315000,Units=km
new line.TR12592822 bus1=BMT166759309.1.2.3,bus2=BMT9201803B.1.2.3,Phases=3,Linecode=CAB202_3_3,Length=0.051454000,Units=km
new line.TR12592820 bus1=BMT166759309.2,bus2=BMT166759310.2,Phases=1,Linecode=CAB202_3_1,Length=0.021606000,Units=km
new line.TR12592819 bus1=BMT3246600B.1.2.3,bus2=BMT166759309.1.2.3,Phases=3,Linecode=CAB202_3_3,Length=0.081309000,Units=km
new line.TR12592817 bus1=BMT9201795B.1.2.3,bus2=BMT3246600B.1.2.3,Phases=3,Linecode=CAB202_3_3,Length=0.079421000,Units=km
new line.TR12592816 bus1=BMT166262517.1.2.3,bus2=BMT9201795B.1.2.3,Phases=3,Linecode=CAB202_3_3,Length=0.076974000,Units=km
new line.TR12592796 bus1=BMT9201778B.1.2.3,bus2=BMT166261718.1.2.3,Phases=3,Linecode=CAB202_3_3,Length=0.089236000,Units=km
new line.TR12592795 bus1=BMT3246439B.1.2.3,bus2=BMT9201778B.1.2.3,Phases=3,Linecode=CAB202_3_3,Length=0.093447000,Units=km
new line.TR12592788 bus1=BMT9201775B.1.2.3,bus2=BMT3246810B.1.2.3,Phases=3,Linecode=CAB204_3_3,Length=0.123093000,Units=km
new line.TR12592787 bus1=BMT156191648.1.2.3,bus2=BMT9201775B.1.2.3,Phases=3,Linecode=CAB204_3_3,Length=0.100780000,Units=km
new line.TR12579926 bus1=BMT165670983.2,bus2=BMT165670985.2,Phases=1,Linecode=CAB202_3_1,Length=0.060624000,Units=km
new line.TR12540976 bus1=BMT164238022.1,bus2=BMT164238024.1,Phases=1,Linecode=CAB103_3_1,Length=0.045279000,Units=km
new line.TR1946441 bus1=BMT156191492.1,bus2=BMT2600094B.1,Phases=1,Linecode=CAB202_3_1,Length=0.075345000,Units=km
new line.TR1979544 bus1=BMT170131263.1.2.3,bus2=BMT156191797.1.2.3,Phases=3,Linecode=CAB202_3_3,Length=0.090714000,Units=km
new line.TR1979551 bus1=BMT170131263.1,bus2=BMT170131265.1,Phases=1,Linecode=CAB202_3_1,Length=0.148750000,Units=km
new line.TR1983163 bus1=BMT156192191.1.2.3,bus2=BMT156192192.1.2.3,Phases=3,Linecode=CAB204_3_3,Length=0.044565000,Units=km
new line.TR1983170 bus1=BMT156192191.1.2.3,bus2=BMT156192193.1.2.3,Phases=3,Linecode=CAB202_3_3,Length=0.213009000,Units=km
new line.TR12495058 bus1=BMT173169172.2,bus2=BMT173169173.2,Phases=1,Linecode=CAB202_3_1,Length=0.094937000,Units=km
new line.TR12495057 bus1=BMT173169171.2,bus2=BMT173169172.2,Phases=1,Linecode=CAB103_3_1,Length=0.037344000,Units=km
new line.TR12465594 bus1=BMT165239083.1.2.3,bus2=BMT165239085.1.2.3,Phases=3,Linecode=CAB103_3_3,Length=0.019728000,Units=km
new line.TR12465593 bus1=BMT3346812B.1.2.3,bus2=BMT165239083.1.2.3,Phases=3,Linecode=CAB202_3_3,Length=0.100870000,Units=km
new line.TR1946448 bus1=BMT2600094B.1,bus2=BMT2600101B.1,Phases=1,Linecode=CAB202_3_1,Length=0.075444000,Units=km
new line.TR1946455 bus1=BMT2600101B.1,bus2=BMT156191493.1,Phases=1,Linecode=CAB202_3_1,Length=0.080835000,Units=km
new line.TR1920247 bus1=BMT156191838.2,bus2=BMT3348142B.2,Phases=1,Linecode=CAB202_3_1,Length=0.074774000,Units=km
new line.TR12419417 bus1=BMT2997750B.1.2.3,bus2=BMT173739776.1.2.3,Phases=3,Linecode=CABA06_3_3,Length=0.030671000,Units=km
new line.TR12419416 bus1=BMT4147500B.1.2.3,bus2=BMT2997750B.1.2.3,Phases=3,Linecode=CABA06_3_3,Length=0.032616000,Units=km
new line.TR12419412 bus1=BMT4147507B.1.2.3,bus2=BMT4147500B.1.2.3,Phases=3,Linecode=CABA06_3_3,Length=0.032302000,Units=km
new line.TR12419407 bus1=BMT4147514B.1.2.3,bus2=BMT4147507B.1.2.3,Phases=3,Linecode=CABA06_3_3,Length=0.030507000,Units=km
new line.TR2174242 bus1=BMT169644640.1.2.3,bus2=BMT156191905.1.2.3,Phases=3,Linecode=CAB202_3_3,Length=0.040629000,Units=km
new line.TR2174249 bus1=BMT169644640.1.2.3,bus2=BMT2926336B.1.2.3,Phases=3,Linecode=CAB202_3_3,Length=0.140619000,Units=km
...

new line.FIC1 bus1=BMT2911027B.1.2.3,bus2=BMT156190736.1.2.3,Phases=3,Linecode=CABA08_3_3,Length=0.001,Units=km