2024_89_CemigReconfigurationCases/1_SEsCemig/ADOD03/ADOD03ChavesMT.dss
new line.CTR100681 bus1=BMT156190254.2,bus2=BMT163527115.2,Phases=1,LineCode=tieSwitch1,Length=0.001,Units=km,switch=T !numEQ 302730
new line.CTR10073 bus1=BMT156189363.3,bus2=BMT161727889.3,Phases=1,LineCode=tieSwitch1,Length=0.001,Units=km,switch=T !numEQ 103843
new line.CTR100765 bus1=BMT156191116.1.2.3,bus2=BMT166068306.1.2.3,Phases=3,LineCode=tieSwitch,Length=0.001,Units=km,switch=T !numEQ 18428
new line.CTR100772 bus1=BMT158261544.2,bus2=BMT158261547.2,Phases=1,LineCode=tieSwitch1,Length=0.001,Units=km,switch=T !numEQ 17023
new line.CTR100779 bus1=BMT156190517.2,bus2=BMT156190582.2,Phases=1,LineCode=tieSwitch1,Length=0.001,Units=km,switch=T !numEQ 18334
new line.CTR10108 bus1=BMT156189703.2,bus2=BMT156189705.2,Phases=1,LineCode=tieSwitch1,Length=0.001,Units=km,switch=T !numEQ 172606
new line.CTR101479 bus1=BMT156188803.1.2.3,bus2=BMT164842250.1.2.3,Phases=3,LineCode=tieSwitch,Length=0.001,Units=km,switch=T !numEQ 17036
new line.CTR101486 bus1=BMT156188904.1.2.3,bus2=BMT156188909.1.2.3,Phases=3,LineCode=tieSwitch,Length=0.001,Units=km,switch=T !numEQ 17047
new line.CTR101500 bus1=BMT156188887.1.2.3,bus2=BMT156189510.1.2.3,Phases=3,LineCode=tieSwitch,Length=0.001,Units=km,switch=T !numEQ 18280
new line.CTR101514 bus1=BMT156188820.1.2.3,bus2=BMT156188828.1.2.3,Phases=3,LineCode=tieSwitch,Length=0.001,Units=km,switch=T !numEQ 17228
new line.CTR101521 bus1=BMT156188827.1.2.3,bus2=BMT163982940.1.2.3,Phases=3,LineCode=tieSwitch,Length=0.001,Units=km,switch=T !numEQ 306211
new line.CTR101549 bus1=BMT156189512.1.2.3,bus2=BMT156189513.1.2.3,Phases=3,LineCode=tieSwitch,Length=0.001,Units=km,switch=T !numEQ 18281
new line.CTR101563 bus1=BMT156188905.1.2.3,bus2=BMT175534083.1.2.3,Phases=3,LineCode=tieSwitch,Length=0.001,Units=km,switch=T !numEQ 17046
new line.CTR101577 bus1=BMT156188930.1.2.3,bus2=BMT156189467.1.2.3,Phases=3,LineCode=tieSwitch,Length=0.001,Units=km,switch=T !numEQ 17229
new line.CTR101591 bus1=BMT156188938.1,bus2=BMT156189387.1,Phases=1,LineCode=tieSwitch1,Length=0.001,Units=km,switch=T !numEQ 18296
new line.CTR101605 bus1=BMT156188945.3,bus2=BMT170728336.3,Phases=1,LineCode=tieSwitch1,Length=0.001,Units=km,switch=T !numEQ 18352
new line.CTR101612 bus1=BMT156188948.1.2.3,bus2=BMT170446370.1.2.3,Phases=3,LineCode=tieSwitch,Length=0.001,Units=km,switch=T !numEQ 18355
new line.CTR101633 bus1=BMT156188977.2,bus2=BMT156189188.2,Phases=1,LineCode=tieSwitch1,Length=0.001,Units=km,switch=T !numEQ 17948
new line.CTR101640 bus1=BMT156188978.1,bus2=BMT156189186.1,Phases=1,LineCode=tieSwitch1,Length=0.001,Units=km,switch=T !numEQ 18359
new line.CTR101654 bus1=BMT156189112.1,bus2=BMT167994048.1,Phases=1,LineCode=tieSwitch1,Length=0.001,Units=km,switch=T !numEQ 18363
new line.CTR101668 bus1=BMT156189078.2,bus2=BMT156189105.2,Phases=1,LineCode=tieSwitch1,Length=0.001,Units=km,switch=T !numEQ 17611
new line.CTR101675 bus1=BMT163363723.1,bus2=BMT156189053.1,Phases=1,LineCode=tieSwitch1,Length=0.001,Units=km,switch=T !numEQ 17914
open line.CTR101675 term=1
new line.CTR101689 bus1=BMT156190013.1,bus2=BMT156190064.1,Phases=1,LineCode=tieSwitch1,Length=0.001,Units=km,switch=T !numEQ 18326
new line.CTR101696 bus1=BMT156189550.1,bus2=BMT156190718.1,Phases=1,LineCode=tieSwitch1,Length=0.001,Units=km,switch=T !numEQ 18301
new line.CTR101710 bus1=BMT156189557.2,bus2=BMT162361155.2,Phases=1,LineCode=tieSwitch1,Length=0.001,Units=km,switch=T !numEQ 17935
new line.CTR101717 bus1=BMT156189006.1.2.3,bus2=BMT172708153.1.2.3,Phases=3,LineCode=tieSwitch,Length=0.001,Units=km,switch=T !numEQ 17950
new line.CTR101724 bus1=BMT172708763.2,bus2=BMT172708764.2,Phases=1,LineCode=tieSwitch1,Length=0.001,Units=km,switch=T !numEQ 17944
new line.CTR101731 bus1=BMT156188911.1.2.3,bus2=BMT166422946.1.2.3,Phases=3,LineCode=tieSwitch,Length=0.001,Units=km,switch=T !numEQ 17908
new line.CTR101738 bus1=BMT156188899.1,bus2=BMT156189507.1,Phases=1,LineCode=tieSwitch1,Length=0.001,Units=km,switch=T !numEQ 17048
new line.CTR106624 bus1=BMT156189555.1.2.3,bus2=BMT168918164.1.2.3,Phases=3,LineCode=tieSwitch,Length=0.001,Units=km,switch=T !numEQ 17050
new line.CTR106876 bus1=BMT156189528.2,bus2=BMT156189538.2,Phases=1,LineCode=tieSwitch1,Length=0.001,Units=km,switch=T !numEQ 172712
new line.CTR113995 bus1=BMT156191178.2,bus2=BMT156191208.2,Phases=1,LineCode=tieSwitch1,Length=0.001,Units=km,switch=T !numEQ 18417
new line.CTR126231 bus1=BMT156189032.1.2.3,bus2=BMT156189033.1.2.3,Phases=3,LineCode=tieSwitch,Length=0.001,Units=km,switch=T !numEQ 175249
new line.CTR12761 bus1=BMT156189005.1.2.3,bus2=BMT156189058.1.2.3,Phases=3,LineCode=tieSwitch,Length=0.001,Units=km,switch=T !numEQ 131026
new line.CTR134197 bus1=BMT161803925.1.2.3,bus2=BMT167049746.1.2.3,Phases=3,LineCode=tieSwitch,Length=0.001,Units=km,switch=T !numEQ 174596
new line.CTR156548 bus1=BMT156190595.1,bus2=BMT160783222.1,Phases=1,LineCode=tieSwitch1,Length=0.001,Units=km,switch=T !numEQ 18331
new line.CTR157472 bus1=BMT156188989.1.2.3,bus2=BMT172708743.1.2.3,Phases=3,LineCode=tieSwitch,Length=0.001,Units=km,switch=T !numEQ 227496
new line.CTR162589 bus1=BMT156189679.2,bus2=BMT156189944.2,Phases=1,LineCode=tieSwitch1,Length=0.001,Units=km,switch=T !numEQ 172473
new line.CTR170352 bus1=BMT156189674.2,bus2=BMT160869352.2,Phases=1,LineCode=tieSwitch1,Length=0.001,Units=km,switch=T !numEQ 174738
new line.CTR170359 bus1=BMT156189611.1.2.3,bus2=BMT156190011.1.2.3,Phases=3,LineCode=tieSwitch,Length=0.001,Units=km,switch=T !numEQ 174715
new line.CTR170912 bus1=BMT156189938.2,bus2=BMT156189939.2,Phases=1,LineCode=tieSwitch1,Length=0.001,Units=km,switch=T !numEQ 172615
new line.CTR17136 bus1=BMT156191168.1.2.3,bus2=BMT166068277.1.2.3,Phases=3,LineCode=tieSwitch,Length=0.001,Units=km,switch=T !numEQ 236566
new line.CTR177457 bus1=BMT156188797.1.2.3,bus2=BMT168383530.1.2.3,Phases=3,LineCode=tieSwitch,Length=0.001,Units=km,switch=T !numEQ 172711
new line.CTR178871 bus1=BMT156189562.1.2.3,bus2=BMT174827030.1.2.3,Phases=3,LineCode=tieSwitch,Length=0.001,Units=km,switch=T !numEQ 18748
new line.CTR193053 bus1=BMT156188847.1.2.3,bus2=BMT156188852.1.2.3,Phases=3,LineCode=tieSwitch,Length=0.001,Units=km,switch=T !numEQ 226621
new line.CTR193501 bus1=BMT156190190.2,bus2=BMT156190293.2,Phases=1,LineCode=tieSwitch1,Length=0.001,Units=km,switch=T !numEQ 207645
new line.CTR327809 bus1=BMT156188920.1.2.3,bus2=BMT156188928.1.2.3,Phases=3,LineCode=tieSwitch,Length=0.001,Units=km,switch=T !numEQ 230579
new line.CTR101766 bus1=BMT156190029.1,bus2=BMT156190055.1,Phases=1,LineCode=tieSwitch1,Length=0.001,Units=km,switch=T !numEQ 18343
new line.CTR101780 bus1=BMT156189548.1.2.3,bus2=BMT156189549.1.2.3,Phases=3,LineCode=tieSwitch,Length=0.001,Units=km,switch=T !numEQ 18787
new line.CTR101787 bus1=BMT156190080.2,bus2=BMT156190478.2,Phases=1,LineCode=tieSwitch1,Length=0.001,Units=km,switch=T !numEQ 18302
new line.CTR101794 bus1=BMT156190083.3,bus2=BMT156190464.3,Phases=1,LineCode=tieSwitch1,Length=0.001,Units=km,switch=T !numEQ 17919
new line.CTR101801 bus1=BMT156190089.1.2.3,bus2=BMT175571777.1.2.3,Phases=3,LineCode=tieSwitch,Length=0.001,Units=km,switch=T !numEQ 18305
new line.CTR101815 bus1=BMT156190112.1.2.3,bus2=BMT158879289.1.2.3,Phases=3,LineCode=tieSwitch,Length=0.001,Units=km,switch=T !numEQ 252554
new line.CTR101822 bus1=BMT156190121.3,bus2=BMT159468658.3,Phases=1,LineCode=tieSwitch1,Length=0.001,Units=km,switch=T !numEQ 18616
new line.CTR101829 bus1=BMT156190178.1,bus2=BMT156190321.1,Phases=1,LineCode=tieSwitch1,Length=0.001,Units=km,switch=T !numEQ 18313
new line.CTR101836 bus1=BMT156190185.2,bus2=BMT156190297.2,Phases=1,LineCode=tieSwitch1,Length=0.001,Units=km,switch=T !numEQ 18317
new line.CTR101864 bus1=BMT156189636.1.2.3,bus2=BMT170972533.1.2.3,Phases=3,LineCode=tieSwitch,Length=0.001,Units=km,switch=T !numEQ 214205
new line.CTR102004 bus1=BMT156190115.3,bus2=BMT158816731.3,Phases=1,LineCode=tieSwitch1,Length=0.001,Units=km,switch=T !numEQ 252553
new line.CTR102011 bus1=BMT156190123.3,bus2=BMT174854303.3,Phases=1,LineCode=tieSwitch1,Length=0.001,Units=km,switch=T !numEQ 17911
new line.CTR102025 bus1=BMT156189568.1.2.3,bus2=BMT156189603.1.2.3,Phases=3,LineCode=tieSwitch,Length=0.001,Units=km,switch=T !numEQ 232134
new line.CTR102032 bus1=BMT156189604.3,bus2=BMT156190066.3,Phases=1,LineCode=tieSwitch1,Length=0.001,Units=km,switch=T !numEQ 17933
new line.CTR102053 bus1=BMT156189617.1.2.3,bus2=BMT176526004.1.2.3,Phases=3,LineCode=tieSwitch,Length=0.001,Units=km,switch=T !numEQ 214195
new line.CTR102074 bus1=BMT156189698.2,bus2=BMT156189709.2,Phases=1,LineCode=tieSwitch1,Length=0.001,Units=km,switch=T !numEQ 17032
new line.CTR102081 bus1=BMT156189723.2,bus2=BMT173048815.2,Phases=1,LineCode=tieSwitch1,Length=0.001,Units=km,switch=T !numEQ 17031
new line.CTR102088 bus1=BMT156189724.2,bus2=BMT156189729.2,Phases=1,LineCode=tieSwitch1,Length=0.001,Units=km,switch=T !numEQ 17923
new line.CTR102095 bus1=BMT156189863.2,bus2=BMT156189929.2,Phases=1,LineCode=tieSwitch1,Length=0.001,Units=km,switch=T !numEQ 17901
new line.CTR102116 bus1=BMT156189572.1.2.3,bus2=BMT156189601.1.2.3,Phases=3,LineCode=tieSwitch,Length=0.001,Units=km,switch=T !numEQ 17938
new line.CTR102123 bus1=BMT156189573.1.2.3,bus2=BMT175527603.1.2.3,Phases=3,LineCode=tieSwitch,Length=0.001,Units=km,switch=T !numEQ 17917
new line.CTR102137 bus1=BMT156189588.1,bus2=BMT156189594.1,Phases=1,LineCode=tieSwitch1,Length=0.001,Units=km,switch=T !numEQ 17940
new line.CTR102144 bus1=BMT156189591.1.2.3,bus2=BMT156189592.1.2.3,Phases=3,LineCode=tieSwitch,Length=0.001,Units=km,switch=T !numEQ 17942
new line.CTR102151 bus1=BMT156189590.1.2.3,bus2=BMT156189596.1.2.3,Phases=3,LineCode=tieSwitch,Length=0.001,Units=km,switch=T !numEQ 17939
new line.CTR114968 bus1=BMT156189839.2,bus2=BMT156189860.2,Phases=1,LineCode=tieSwitch1,Length=0.001,Units=km,switch=T !numEQ 127506
new line.CTR114975 bus1=BMT156189680.2,bus2=BMT156189818.2,Phases=1,LineCode=tieSwitch1,Length=0.001,Units=km,switch=T !numEQ 17033
new line.CTR114982 bus1=BMT156189864.2,bus2=BMT173257413.2,Phases=1,LineCode=tieSwitch1,Length=0.001,Units=km,switch=T !numEQ 17729
new line.CTR120582 bus1=BMT156189318.3,bus2=BMT163101008.3,Phases=1,LineCode=tieSwitch1,Length=0.001,Units=km,switch=T !numEQ 125308
new line.CTR121940 bus1=BMT156189269.3,bus2=BMT170726127.3,Phases=1,LineCode=tieSwitch1,Length=0.001,Units=km,switch=T !numEQ 294762
new line.CTR136990 bus1=BMT156190520.1.2.3,bus2=BMT174374096.1.2.3,Phases=3,LineCode=tieSwitch,Length=0.001,Units=km,switch=T !numEQ 18335
new line.CTR144424 bus1=BMT156190603.1,bus2=BMT172391335.1,Phases=1,LineCode=tieSwitch1,Length=0.001,Units=km,switch=T !numEQ 103777
new line.CTR149716 bus1=BMT156188871.2,bus2=BMT156188873.2,Phases=1,LineCode=tieSwitch1,Length=0.001,Units=km,switch=T !numEQ 103862
new line.CTR150073 bus1=BMT156189007.3,bus2=BMT156189054.3,Phases=1,LineCode=tieSwitch1,Length=0.001,Units=km,switch=T !numEQ 18287
new line.CTR166187 bus1=BMT156190523.1.2.3,bus2=BMT156190529.1.2.3,Phases=3,LineCode=tieSwitch,Length=0.001,Units=km,switch=T !numEQ 137625
new line.CTR166586 bus1=BMT156189265.3,bus2=BMT156189347.3,Phases=1,LineCode=tieSwitch1,Length=0.001,Units=km,switch=T !numEQ 17913
new line.CTR166943 bus1=BMT156189131.1,bus2=BMT156189153.1,Phases=1,LineCode=tieSwitch1,Length=0.001,Units=km,switch=T !numEQ 172683
new line.CTR172480 bus1=BMT156189871.2,bus2=BMT156189926.2,Phases=1,LineCode=tieSwitch1,Length=0.001,Units=km,switch=T !numEQ 209303
new line.CTR17297 bus1=BMT156190266.2,bus2=BMT159681802.2,Phases=1,LineCode=tieSwitch1,Length=0.001,Units=km,switch=T !numEQ 17025
new line.CTR197778 bus1=BMT156189615.1.2.3,bus2=BMT156190000.1.2.3,Phases=3,LineCode=tieSwitch,Length=0.001,Units=km,switch=T !numEQ 214192
new line.CTR197813 bus1=BMT156189629.2,bus2=BMT156189638.2,Phases=1,LineCode=tieSwitch1,Length=0.001,Units=km,switch=T !numEQ 214200
new line.CTR197834 bus1=BMT156189634.2,bus2=BMT156189957.2,Phases=1,LineCode=tieSwitch1,Length=0.001,Units=km,switch=T !numEQ 214202
new line.CTR197862 bus1=BMT156189681.2,bus2=BMT156189682.2,Phases=1,LineCode=tieSwitch1,Length=0.001,Units=km,switch=T !numEQ 214207
new line.CTR22680 bus1=BMT156191234.2,bus2=BMT156191236.2,Phases=1,LineCode=tieSwitch1,Length=0.001,Units=km,switch=T !numEQ 115629
new line.CTR350454 bus1=BMT120396903.2,bus2=BMT120398338.2,Phases=1,LineCode=tieSwitch1,Length=0.001,Units=km,switch=T !numEQ 228619
new line.CTR3661 bus1=BMT156188987.1,bus2=BMT156189111.1,Phases=1,LineCode=tieSwitch1,Length=0.001,Units=km,switch=T !numEQ 125284
new line.CTR382528 bus1=BMT156189149.1,bus2=BMT156189150.1,Phases=1,LineCode=tieSwitch1,Length=0.001,Units=km,switch=T !numEQ 292445
new line.CTR436176 bus1=BMT156190117.1,bus2=BMT156190350.1,Phases=1,LineCode=tieSwitch1,Length=0.001,Units=km,switch=T !numEQ 294792
new line.CTR456476 bus1=BMT156190594.1,bus2=BMT160202093.1,Phases=1,LineCode=tieSwitch1,Length=0.001,Units=km,switch=T !numEQ 312547
new line.CTR151627 bus1=BMT156188787.1.2.3,bus2=BMT160296971.1.2.3,Phases=3,LineCode=tieSwitch,Length=0.001,Units=km,switch=T !numEQ 173953
new line.CTR158116 bus1=BMT156191141.1.2.3,bus2=BMT163122600.1.2.3,Phases=3,LineCode=tieSwitch,Length=0.001,Units=km,switch=T !numEQ 140327
new line.CTR164360 bus1=BMT156189883.2,bus2=BMT156189913.2,Phases=1,LineCode=tieSwitch1,Length=0.001,Units=km,switch=T !numEQ 103762
new line.CTR164675 bus1=BMT156188995.2,bus2=BMT156189072.2,Phases=1,LineCode=tieSwitch1,Length=0.001,Units=km,switch=T !numEQ 18365
new line.CTR164745 bus1=BMT156188970.1.2.3,bus2=BMT165123372.1.2.3,Phases=3,LineCode=tieSwitch,Length=0.001,Units=km,switch=T !numEQ 17035
new line.CTR164759 bus1=BMT156188965.2,bus2=BMT156189228.2,Phases=1,LineCode=tieSwitch1,Length=0.001,Units=km,switch=T !numEQ 18306
new line.CTR164766 bus1=BMT156189129.1,bus2=BMT161667083.1,Phases=1,LineCode=tieSwitch1,Length=0.001,Units=km,switch=T !numEQ 17906
new line.CTR164773 bus1=BMT156189123.1,bus2=BMT156189138.1,Phases=1,LineCode=tieSwitch1,Length=0.001,Units=km,switch=T !numEQ 17910
new line.CTR164787 bus1=BMT156189543.3,bus2=BMT156190724.3,Phases=1,LineCode=tieSwitch1,Length=0.001,Units=km,switch=T !numEQ 18321
new line.CTR164794 bus1=BMT175708607.1,bus2=BMT156190610.1,Phases=1,LineCode=tieSwitch1,Length=0.001,Units=km,switch=T !numEQ 18347
new line.CTR164801 bus1=BMT156190031.1,bus2=BMT156190053.1,Phases=1,LineCode=tieSwitch1,Length=0.001,Units=km,switch=T !numEQ 18324
new line.CTR164808 bus1=BMT156189551.1.2.3,bus2=BMT176431922.1.2.3,Phases=3,LineCode=tieSwitch,Length=0.001,Units=km,switch=T !numEQ 18300
new line.CTR164815 bus1=BMT156189558.2,bus2=BMT156190488.2,Phases=1,LineCode=tieSwitch1,Length=0.001,Units=km,switch=T !numEQ 18623
new line.CTR164822 bus1=BMT156189015.1.2.3,bus2=BMT156189028.1.2.3,Phases=3,LineCode=tieSwitch,Length=0.001,Units=km,switch=T !numEQ 17909
new line.CTR164829 bus1=BMT156190071.1.2.3,bus2=BMT172709407.1.2.3,Phases=3,LineCode=tieSwitch,Length=0.001,Units=km,switch=T !numEQ 17515
new line.CTR164843 bus1=BMT156190088.2,bus2=BMT156190459.2,Phases=1,LineCode=tieSwitch1,Length=0.001,Units=km,switch=T !numEQ 17925
new line.CTR164913 bus1=BMT156190003.2,bus2=BMT156190007.2,Phases=1,LineCode=tieSwitch1,Length=0.001,Units=km,switch=T !numEQ 17936
new line.CTR164920 bus1=BMT156189639.2,bus2=BMT175947169.2,Phases=1,LineCode=tieSwitch1,Length=0.001,Units=km,switch=T !numEQ 17905
new line.CTR164934 bus1=BMT156189699.2,bus2=BMT156189702.2,Phases=1,LineCode=tieSwitch1,Length=0.001,Units=km,switch=T !numEQ 17927
new line.CTR164948 bus1=BMT156189566.1.2.3,bus2=BMT174826444.1.2.3,Phases=3,LineCode=tieSwitch,Length=0.001,Units=km,switch=T !numEQ 332092
new line.CTR17353 bus1=BMT173202267.1.2.3,bus2=BMT156191122.1.2.3,Phases=3,LineCode=tieSwitch,Length=0.001,Units=km,switch=T !numEQ 18147
new line.CTR17360 bus1=BMT156191183.1,bus2=BMT156191193.1,Phases=1,LineCode=tieSwitch1,Length=0.001,Units=km,switch=T !numEQ 19029
new line.CTR174461 bus1=BMT156188885.1.2.3,bus2=BMT164587347.1.2.3,Phases=3,LineCode=tieSwitch,Length=0.001,Units=km,switch=T !numEQ 17929
new line.CTR174657 bus1=BMT156190498.1,bus2=BMT156190591.1,Phases=1,LineCode=tieSwitch1,Length=0.001,Units=km,switch=T !numEQ 172505
new line.CTR175147 bus1=BMT156190116.1.2.3,bus2=BMT156190354.1.2.3,Phases=3,LineCode=tieSwitch,Length=0.001,Units=km,switch=T !numEQ 18613
new line.CTR175154 bus1=BMT156190102.2,bus2=BMT176615240.2,Phases=1,LineCode=tieSwitch1,Length=0.001,Units=km,switch=T !numEQ 18362
new line.CTR178962 bus1=BMT156191180.1.2.3,bus2=BMT161803921.1.2.3,Phases=3,LineCode=tieSwitch,Length=0.001,Units=km,switch=T !numEQ 174597
new line.CTR180068 bus1=BMT156190082.3,bus2=BMT156190472.3,Phases=1,LineCode=tieSwitch1,Length=0.001,Units=km,switch=T !numEQ 17926
new line.CTR18053 bus1=BMT156190084.1,bus2=BMT156190468.1,Phases=1,LineCode=tieSwitch1,Length=0.001,Units=km,switch=T !numEQ 172607
new line.CTR188132 bus1=BMT156189381.3,bus2=BMT156189383.3,Phases=1,LineCode=tieSwitch1,Length=0.001,Units=km,switch=T !numEQ 205676
new line.CTR195167 bus1=BMT156188931.1.2.3,bus2=BMT169510701.1.2.3,Phases=3,LineCode=tieSwitch,Length=0.001,Units=km,switch=T !numEQ 227501
new line.CTR195195 bus1=BMT156189401.1,bus2=BMT172136368.1,Phases=1,LineCode=tieSwitch1,Length=0.001,Units=km,switch=T !numEQ 203809
new line.CTR195601 bus1=BMT156190184.1.2.3,bus2=BMT156190302.1.2.3,Phases=3,LineCode=tieSwitch,Length=0.001,Units=km,switch=T !numEQ 223478
new line.CTR195608 bus1=BMT156190305.1,bus2=BMT156190307.1,Phases=1,LineCode=tieSwitch1,Length=0.001,Units=km,switch=T !numEQ 223472
new line.CTR195951 bus1=BMT156190324.1,bus2=BMT156190330.1,Phases=1,LineCode=tieSwitch1,Length=0.001,Units=km,switch=T !numEQ 207647
new line.CTR26733 bus1=BMT156191176.1.2.3,bus2=BMT176684097.1.2.3,Phases=3,LineCode=tieSwitch,Length=0.001,Units=km,switch=T !numEQ 18132
new line.CTR334914 bus1=BMT156189231.2,bus2=BMT156189233.2,Phases=1,LineCode=tieSwitch1,Length=0.001,Units=km,switch=T !numEQ 227146
new line.CTR343937 bus1=BMT156190303.1,bus2=BMT156190317.1,Phases=1,LineCode=tieSwitch1,Length=0.001,Units=km,switch=T !numEQ 223475
new line.CTR344868 bus1=BMT153931541.1,bus2=BMT153931544.1,Phases=1,LineCode=tieSwitch1,Length=0.001,Units=km,switch=T !numEQ 228618
new line.CTR38689 bus1=BMT120398086.2,bus2=BMT120398170.2,Phases=1,LineCode=tieSwitch1,Length=0.001,Units=km,switch=T !numEQ 116470
new line.CTR440894 bus1=BMT156188861.1.2.3,bus2=BMT156188863.1.2.3,Phases=3,LineCode=tieSwitch,Length=0.001,Units=km,switch=T !numEQ 307775
new line.CTR440901 bus1=BMT156188865.2,bus2=BMT156188866.2,Phases=1,LineCode=tieSwitch1,Length=0.001,Units=km,switch=T !numEQ 307776
new line.CTR440915 bus1=BMT156191172.1.2.3,bus2=BMT161756037.1.2.3,Phases=3,LineCode=tieSwitch,Length=0.001,Units=km,switch=T !numEQ 308715
new line.CTR462615 bus1=BMT156189571.2,bus2=BMT156189574.2,Phases=1,LineCode=tieSwitch1,Length=0.001,Units=km,switch=T !numEQ 312469
new line.CTR462783 bus1=BMT156190334.1,bus2=BMT160673263.1,Phases=1,LineCode=tieSwitch1,Length=0.001,Units=km,switch=T !numEQ 307863
new line.CTR462825 bus1=BMT156189247.3,bus2=BMT161203917.3,Phases=1,LineCode=tieSwitch1,Length=0.001,Units=km,switch=T !numEQ 312408
new line.CTR51093 bus1=BMT156189249.3,bus2=BMT156189252.3,Phases=1,LineCode=tieSwitch1,Length=0.001,Units=km,switch=T !numEQ 17621
new line.CTR51268 bus1=BMT156189487.2,bus2=BMT156189490.2,Phases=1,LineCode=tieSwitch1,Length=0.001,Units=km,switch=T !numEQ 18283
new line.CTR376221 bus1=BMT159865136.1.2.3,bus2=BMT159865137.1.2.3,Phases=3,LineCode=tieSwitch,Length=0.001,Units=km,switch=T !numEQ 292947
new line.CTR431591 bus1=BMT156191166.3,bus2=BMT161131869.3,Phases=1,LineCode=tieSwitch1,Length=0.001,Units=km,switch=T !numEQ 308668
new line.CTR64351 bus1=BMT156188936.1,bus2=BMT176607823.1,Phases=1,LineCode=tieSwitch1,Length=0.001,Units=km,switch=T !numEQ 18298
new line.CTR70294 bus1=BMT156190122.1.2.3,bus2=BMT171789308.1.2.3,Phases=3,LineCode=tieSwitch,Length=0.001,Units=km,switch=T !numEQ 18622
new line.CTR82152 bus1=BMT156190016.1.2.3,bus2=BMT156190018.1.2.3,Phases=3,LineCode=tieSwitch,Length=0.001,Units=km,switch=T !numEQ 173839
new line.CTR864064 bus1=BMT153933933.1,bus2=BMT153933935.1,Phases=1,LineCode=tieSwitch1,Length=0.001,Units=km,switch=T !numEQ 373470
new line.CTR885428 bus1=BMT165848533.1.2.3,bus2=BMT168872476.1.2.3,Phases=3,LineCode=tieSwitch,Length=0.001,Units=km,switch=T !numEQ 262841
new line.CTR895836 bus1=BMT173048907.1,bus2=BMT173048921.1,Phases=1,LineCode=tieSwitch1,Length=0.001,Units=km,switch=T !numEQ 270756
new line.CTR911076 bus1=BMT170446377.1,bus2=BMT174759290.1,Phases=1,LineCode=tieSwitch1,Length=0.001,Units=km,switch=T !numEQ 277357
new line.CTR919198 bus1=BMT173048851.2,bus2=BMT173050218.2,Phases=1,LineCode=tieSwitch1,Length=0.001,Units=km,switch=T !numEQ 328519
new line.CTRR22840 bus1=BMT156189683.2,bus2=BMT156189684.2,Phases=1,LineCode=tieSwitch1,Length=0.001,Units=km,switch=T !numEQ 312195
new line.CTRR22854 bus1=BMT156189390.1,bus2=BMT176481113.1,Phases=1,LineCode=tieSwitch1,Length=0.001,Units=km,switch=T !numEQ 312196
new line.CTRR22875 bus1=BMT156189819.2,bus2=BMT173262515.2,Phases=1,LineCode=tieSwitch1,Length=0.001,Units=km,switch=T !numEQ 307867
new line.CTRR22910 bus1=BMT156190592.1,bus2=BMT175708590.1,Phases=1,LineCode=tieSwitch1,Length=0.001,Units=km,switch=T !numEQ 307868
new line.CTRR22924 bus1=BMT156189238.3,bus2=BMT176515968.3,Phases=1,LineCode=tieSwitch1,Length=0.001,Units=km,switch=T !numEQ 312197
new line.CTRR36419 bus1=BMT167615237.1.2.3,bus2=BMT167615089.1.2.3,Phases=3,LineCode=tieSwitch,Length=0.001,Units=km,switch=T !numEQ 256626
open line.CTRR36419 term=1
new line.CTRR45186 bus1=BMT174374031.2,bus2=BMT174374034.2,Phases=1,LineCode=tieSwitch1,Length=0.001,Units=km,switch=T !numEQ 18336
new line.CTRR48510 bus1=BMT156188860.2,bus2=BMT156188876.2,Phases=1,LineCode=tieSwitch1,Length=0.001,Units=km,switch=T !numEQ 171729
new line.CTR152642 bus1=BMT156189668.2,bus2=BMT156189669.2,Phases=1,LineCode=tieSwitch1,Length=0.001,Units=km,switch=T !numEQ 172608
new line.CTR167979 bus1=BMT156189962.2,bus2=BMT161765003.2,Phases=1,LineCode=tieSwitch1,Length=0.001,Units=km,switch=T !numEQ 17188
new line.CTR168091 bus1=BMT156190619.1,bus2=BMT156190620.1,Phases=1,LineCode=tieSwitch1,Length=0.001,Units=km,switch=T !numEQ 138315
new line.CTR168105 bus1=BMT156190524.2,bus2=BMT156190572.2,Phases=1,LineCode=tieSwitch1,Length=0.001,Units=km,switch=T !numEQ 137624
new line.CTR168651 bus1=BMT156188783.1.2.3,bus2=BMT156188785.1.2.3,Phases=3,LineCode=tieSwitch,Length=0.001,Units=km,switch=T !numEQ 173974
new line.CTR175560 bus1=BMT171837074.1.2.3,bus2=BMT156191129.1.2.3,Phases=3,LineCode=tieSwitch,Length=0.001,Units=km,switch=T !numEQ 173212
new line.CTR175567 bus1=BMT156191127.1.2.3,bus2=BMT161433393.1.2.3,Phases=3,LineCode=tieSwitch,Length=0.001,Units=km,switch=T !numEQ 173211
new line.CTR175574 bus1=BMT156191114.1.2.3,bus2=BMT176720939.1.2.3,Phases=3,LineCode=tieSwitch,Length=0.001,Units=km,switch=T !numEQ 173210
new line.CTR177023 bus1=BMT156190202.1.2.3,bus2=BMT169924639.1.2.3,Phases=3,LineCode=tieSwitch,Length=0.001,Units=km,switch=T !numEQ 17924
new line.CTR183918 bus1=BMT156190539.2,bus2=BMT156309141.2,Phases=1,LineCode=tieSwitch1,Length=0.001,Units=km,switch=T !numEQ 175473
new line.CTR183932 bus1=BMT156188973.1,bus2=BMT161110170.1,Phases=1,LineCode=tieSwitch1,Length=0.001,Units=km,switch=T !numEQ 18357
new line.CTR196595 bus1=BMT156190198.3,bus2=BMT156190289.3,Phases=1,LineCode=tieSwitch1,Length=0.001,Units=km,switch=T !numEQ 208105
new line.CTR20573 bus1=BMT120398023.2,bus2=BMT120398261.2,Phases=1,LineCode=tieSwitch1,Length=0.001,Units=km,switch=T !numEQ 16776
new line.CTR23940 bus1=BMT156190118.1,bus2=BMT173418004.1,Phases=1,LineCode=tieSwitch1,Length=0.001,Units=km,switch=T !numEQ 18311
new line.CTR330245 bus1=BMT156190207.3,bus2=BMT156190282.3,Phases=1,LineCode=tieSwitch1,Length=0.001,Units=km,switch=T !numEQ 227141
new line.CTR466304 bus1=BMT149688071.3,bus2=BMT160272905.3,Phases=1,LineCode=tieSwitch1,Length=0.001,Units=km,switch=T !numEQ 317684
new line.CTR60074 bus1=BMT156189958.2,bus2=BMT156189960.2,Phases=1,LineCode=tieSwitch1,Length=0.001,Units=km,switch=T !numEQ 203808
new line.CTR65394 bus1=BMT156188996.1.2.3,bus2=BMT156189065.1.2.3,Phases=3,LineCode=tieSwitch,Length=0.001,Units=km,switch=T !numEQ 17945
new line.CTR74242 bus1=BMT169924655.1.2.3,bus2=BMT120396917.1.2.3,Phases=3,LineCode=tieSwitch,Length=0.001,Units=km,switch=T !numEQ 18615
new line.CTR8253 bus1=BMT156191175.2,bus2=BMT156191214.2,Phases=1,LineCode=tieSwitch1,Length=0.001,Units=km,switch=T !numEQ 17004
new line.CTR846269 bus1=BMT156190655.1,bus2=BMT159435083.1,Phases=1,LineCode=tieSwitch1,Length=0.001,Units=km,switch=T !numEQ 18278
new line.CTR846271 bus1=BMT156190630.1,bus2=BMT158194212.1,Phases=1,LineCode=tieSwitch1,Length=0.001,Units=km,switch=T !numEQ 18342
new line.CTR846288 bus1=BMT156189331.3,bus2=BMT168090431.3,Phases=1,LineCode=tieSwitch1,Length=0.001,Units=km,switch=T !numEQ 120786
new line.CTR847279 bus1=BMT156189425.1,bus2=BMT163087362.1,Phases=1,LineCode=tieSwitch1,Length=0.001,Units=km,switch=T !numEQ 375517
new line.CTR860189 bus1=BMT156188949.2,bus2=BMT156188950.2,Phases=1,LineCode=tieSwitch1,Length=0.001,Units=km,switch=T !numEQ 172530
new line.CTR868506 bus1=BMT156190194.1.2.3,bus2=BMT169582577.1.2.3,Phases=3,LineCode=tieSwitch,Length=0.001,Units=km,switch=T !numEQ 380665
new line.CTR868513 bus1=BMT156190218.2,bus2=BMT156397317.2,Phases=1,LineCode=tieSwitch1,Length=0.001,Units=km,switch=T !numEQ 380667
new line.CTR868527 bus1=BMT155244432.1.2.3,bus2=BMT159920373.1.2.3,Phases=3,LineCode=tieSwitch,Length=0.001,Units=km,switch=T !numEQ 380669
new line.CTR870211 bus1=BMT156189251.3,bus2=BMT156189371.3,Phases=1,LineCode=tieSwitch1,Length=0.001,Units=km,switch=T !numEQ 238286
new line.CTR887033 bus1=BMT161727890.3,bus2=BMT161727892.3,Phases=1,LineCode=tieSwitch1,Length=0.001,Units=km,switch=T !numEQ 265260
new line.CTR887128 bus1=BMT161765027.2,bus2=BMT162900498.2,Phases=1,LineCode=tieSwitch1,Length=0.001,Units=km,switch=T !numEQ 252307
new line.CTR888241 bus1=BMT162305274.1.2.3,bus2=BMT162305413.1.2.3,Phases=3,LineCode=tieSwitch,Length=0.001,Units=km,switch=T !numEQ 258367
new line.CTR894235 bus1=BMT164587360.1.2.3,bus2=BMT164836214.1.2.3,Phases=3,LineCode=tieSwitch,Length=0.001,Units=km,switch=T !numEQ 263587
new line.CTR908457 bus1=BMT169569612.1.2.3,bus2=BMT169570048.1.2.3,Phases=3,LineCode=tieSwitch,Length=0.001,Units=km,switch=T !numEQ 258332
new line.CTR908459 bus1=BMT169570051.1.2.3,bus2=BMT169570139.1.2.3,Phases=3,LineCode=tieSwitch,Length=0.001,Units=km,switch=T !numEQ 263101
new line.CTR915408 bus1=BMT171833484.1.2.3,bus2=BMT173201669.1.2.3,Phases=3,LineCode=tieSwitch,Length=0.001,Units=km,switch=T !numEQ 325990
new line.CTR925277 bus1=BMT174374098.2,bus2=BMT174374102.2,Phases=1,LineCode=tieSwitch1,Length=0.001,Units=km,switch=T !numEQ 340817
new line.CTR925844 bus1=BMT174462206.3,bus2=BMT174462503.3,Phases=1,LineCode=tieSwitch1,Length=0.001,Units=km,switch=T !numEQ 341113
new line.CTRR41181 bus1=BMT169510620.1.2.3,bus2=BMT169510704.1.2.3,Phases=3,LineCode=tieSwitch,Length=0.001,Units=km,switch=T !numEQ 299495
new line.CTRR47780 bus1=BMT175311835.2,bus2=BMT175311839.2,Phases=1,LineCode=tieSwitch1,Length=0.001,Units=km,switch=T !numEQ 18304
new line.CTRR48336 bus1=BMT175534118.3,bus2=BMT175534205.3,Phases=1,LineCode=tieSwitch1,Length=0.001,Units=km,switch=T !numEQ 130593
new line.CTR55132 bus1=BMT156189008.1,bus2=BMT163363713.1,Phases=1,LineCode=tieSwitch1,Length=0.001,Units=km,switch=T !numEQ 174948
new line.CTR59311 bus1=BMT156189561.1.2.3,bus2=BMT156190070.1.2.3,Phases=3,LineCode=tieSwitch,Length=0.001,Units=km,switch=T !numEQ 18632
new line.CTR7259 bus1=BMT156189426.1,bus2=BMT163087395.1,Phases=1,LineCode=tieSwitch1,Length=0.001,Units=km,switch=T !numEQ 134043
new line.CTR74690 bus1=BMT156188850.1.2.3,bus2=BMT156188883.1.2.3,Phases=3,LineCode=tieSwitch,Length=0.001,Units=km,switch=T !numEQ 17928
new line.CTR74767 bus1=BMT156189583.1.2.3,bus2=BMT156189598.1.2.3,Phases=3,LineCode=tieSwitch,Length=0.001,Units=km,switch=T !numEQ 17728
new line.CTR74900 bus1=BMT156188816.1.2.3,bus2=BMT156188817.1.2.3,Phases=3,LineCode=tieSwitch,Length=0.001,Units=km,switch=T !numEQ 18284
new line.CTR77686 bus1=BMT156189776.2,bus2=BMT156189814.2,Phases=1,LineCode=tieSwitch1,Length=0.001,Units=km,switch=T !numEQ 17657
new line.CTR83573 bus1=BMT156189031.3,bus2=BMT156189035.3,Phases=1,LineCode=tieSwitch1,Length=0.001,Units=km,switch=T !numEQ 174935
new line.CTR85736 bus1=BMT156191153.1.2.3,bus2=BMT156191158.1.2.3,Phases=3,LineCode=tieSwitch,Length=0.001,Units=km,switch=T !numEQ 174594
new line.CTR870705 bus1=BMT156190339.1,bus2=BMT156190341.1,Phases=1,LineCode=tieSwitch1,Length=0.001,Units=km,switch=T !numEQ 246798
new line.CTR882990 bus1=BMT160014964.1,bus2=BMT160014977.1,Phases=1,LineCode=tieSwitch1,Length=0.001,Units=km,switch=T !numEQ 259616
new line.CTR883050 bus1=BMT161425215.1.2.3,bus2=BMT161433515.1.2.3,Phases=3,LineCode=tieSwitch,Length=0.001,Units=km,switch=T !numEQ 259908
new line.CTR890409 bus1=BMT163269063.1.2.3,bus2=BMT163968536.1.2.3,Phases=3,LineCode=tieSwitch,Length=0.001,Units=km,switch=T !numEQ 262844
new line.CTR890413 bus1=BMT163269866.1.2.3,bus2=BMT163269871.1.2.3,Phases=3,LineCode=tieSwitch,Length=0.001,Units=km,switch=T !numEQ 262842
new line.CTR891665 bus1=BMT163813881.1.2.3,bus2=BMT163813968.1.2.3,Phases=3,LineCode=tieSwitch,Length=0.001,Units=km,switch=T !numEQ 262845
new line.CTR891666 bus1=BMT163813969.1.2.3,bus2=BMT163813974.1.2.3,Phases=3,LineCode=tieSwitch,Length=0.001,Units=km,switch=T !numEQ 262846
new line.CTR906664 bus1=BMT168918177.2,bus2=BMT168918180.2,Phases=1,LineCode=tieSwitch1,Length=0.001,Units=km,switch=T !numEQ 256632
new line.CTR920955 bus1=BMT173524827.3,bus2=BMT173525206.3,Phases=1,LineCode=tieSwitch1,Length=0.001,Units=km,switch=T !numEQ 327694
new line.CTR921280 bus1=BMT176431923.1.2.3,bus2=BMT176431924.1.2.3,Phases=3,LineCode=tieSwitch,Length=0.001,Units=km,switch=T !numEQ 331989
new line.CTR936685 bus1=BMT176481128.1,bus2=BMT176481152.1,Phases=1,LineCode=tieSwitch1,Length=0.001,Units=km,switch=T !numEQ 353197
new line.CTRR39564 bus1=BMT163982945.1.2.3,bus2=BMT163982947.1.2.3,Phases=3,LineCode=tieSwitch,Length=0.001,Units=km,switch=T !numEQ 264351
new line.CTRR45412 bus1=BMT174462504.3,bus2=BMT174462505.3,Phases=1,LineCode=tieSwitch1,Length=0.001,Units=km,switch=T !numEQ 312439
new line.CTRR46383 bus1=BMT156190015.1,bus2=BMT170556244.1,Phases=1,LineCode=tieSwitch1,Length=0.001,Units=km,switch=T !numEQ 18368
new line.CTR46858 bus1=BMT156189893.2,bus2=BMT156189918.2,Phases=1,LineCode=tieSwitch1,Length=0.001,Units=km,switch=T !numEQ 172675
new line.CTR5196374 bus1=BMTSEGM#25981870.1.2.3,bus2=BMTSEGM#15589122.1.2.3,Phases=3,LineCode=tieSwitch,Length=0.001,Units=km,switch=T !numEQ 
new line.CTR5196439 bus1=BMTSEGM#25982195.1.2.3,bus2=BMTSEGM#15589317.1.2.3,Phases=3,LineCode=tieSwitch,Length=0.001,Units=km,switch=T !numEQ 
open line.CTR5196439 term=1
new line.CTR5196520 bus1=BMTSEGM#25982600.1.2.3,bus2=BMTSEGM#15589560.1.2.3,Phases=3,LineCode=tieSwitch,Length=0.001,Units=km,switch=T !numEQ 
new line.CTR56896 bus1=BMT156191182.1.2.3,bus2=BMT172511243.1.2.3,Phases=3,LineCode=tieSwitch,Length=0.001,Units=km,switch=T !numEQ 312498
new line.CTR62734 bus1=BMT156188811.1.2.3,bus2=BMT156189521.1.2.3,Phases=3,LineCode=tieSwitch,Length=0.001,Units=km,switch=T !numEQ 17223
new line.CTR62909 bus1=BMT156188966.3,bus2=BMT156189237.3,Phases=1,LineCode=tieSwitch1,Length=0.001,Units=km,switch=T !numEQ 171702
new line.CTR7371 bus1=BMT156188839.1.2.3,bus2=BMT156188840.1.2.3,Phases=3,LineCode=tieSwitch,Length=0.001,Units=km,switch=T !numEQ 17604
new line.CTR7931 bus1=BMT156188823.1.2.3,bus2=BMT156189517.1.2.3,Phases=3,LineCode=tieSwitch,Length=0.001,Units=km,switch=T !numEQ 130588
new line.CTR851414 bus1=BMT156191190.1.2.3,bus2=BMT156191191.1.2.3,Phases=3,LineCode=tieSwitch,Length=0.001,Units=km,switch=T !numEQ 377728
new line.CTR859030 bus1=BMT156190427.2,bus2=BMT160405723.2,Phases=1,LineCode=tieSwitch1,Length=0.001,Units=km,switch=T !numEQ 221704
new line.CTR865092 bus1=BMT161137071.1.2.3,bus2=BMT175039860.1.2.3,Phases=3,LineCode=tieSwitch,Length=0.001,Units=km,switch=T !numEQ 380683
new line.CTR867216 bus1=BMT156190660.1,bus2=BMT162532960.1,Phases=1,LineCode=tieSwitch1,Length=0.001,Units=km,switch=T !numEQ 234556
new line.CTR867954 bus1=BMT156189529.2,bus2=BMT156189535.2,Phases=1,LineCode=tieSwitch1,Length=0.001,Units=km,switch=T !numEQ 235875
new line.CTR874959 bus1=BMT157170821.1,bus2=BMT157170884.1,Phases=1,LineCode=tieSwitch1,Length=0.001,Units=km,switch=T !numEQ 245967
new line.CTR882370 bus1=BMT159791745.3,bus2=BMT159849034.3,Phases=1,LineCode=tieSwitch1,Length=0.001,Units=km,switch=T !numEQ 258495
new line.CTR888413 bus1=BMT162361158.2,bus2=BMT162361970.2,Phases=1,LineCode=tieSwitch1,Length=0.001,Units=km,switch=T !numEQ 249950
new line.CTR888648 bus1=BMT162463043.1,bus2=BMT162463049.1,Phases=1,LineCode=tieSwitch1,Length=0.001,Units=km,switch=T !numEQ 265754
new line.CTR92484 bus1=BMT156189399.1,bus2=BMT159546424.1,Phases=1,LineCode=tieSwitch1,Length=0.001,Units=km,switch=T !numEQ 127660
new line.CTR931876 bus1=BMT175527604.1.2.3,bus2=BMT175527606.1.2.3,Phases=3,LineCode=tieSwitch,Length=0.001,Units=km,switch=T !numEQ 348171
new line.CTR931938 bus1=BMT175534091.3,bus2=BMT175534204.3,Phases=1,LineCode=tieSwitch1,Length=0.001,Units=km,switch=T !numEQ 348145
new line.CTR932122 bus1=BMT175571780.2,bus2=BMT175571795.2,Phases=1,LineCode=tieSwitch1,Length=0.001,Units=km,switch=T !numEQ 347241
new line.CTR9569 bus1=BMT156189169.1,bus2=BMT160832120.1,Phases=1,LineCode=tieSwitch1,Length=0.001,Units=km,switch=T !numEQ 172569
new line.CTR96425 bus1=BMT156190163.3,bus2=BMT156190173.3,Phases=1,LineCode=tieSwitch1,Length=0.001,Units=km,switch=T !numEQ 173145
new line.CTR9688 bus1=BMT156189000.1.2.3,bus2=BMT157362458.1.2.3,Phases=3,LineCode=tieSwitch,Length=0.001,Units=km,switch=T !numEQ 172358
new line.CTR9695 bus1=BMT156189061.1.2.3,bus2=BMT156189063.1.2.3,Phases=3,LineCode=tieSwitch,Length=0.001,Units=km,switch=T !numEQ 172510
new line.CTRR17884 bus1=BMT173201674.1.2.3,bus2=BMT173198940.1.2.3,Phases=3,LineCode=tieSwitch,Length=0.001,Units=km,switch=T !numEQ 222813
open line.CTRR17884 term=1
new line.CTRR34778 bus1=BMT156191105.1.2.3,bus2=BMT156191100.1.2.3,Phases=3,LineCode=tieSwitch,Length=0.001,Units=km,switch=T !numEQ 380754
open line.CTRR34778 term=1
new line.CTRR34779 bus1=BMT159920384.1.2.3,bus2=BMT156162137.1.2.3,Phases=3,LineCode=tieSwitch,Length=0.001,Units=km,switch=T !numEQ 380755
new line.CTRR50598 bus1=BMT156191257.1,bus2=BMT176720970.1,Phases=1,LineCode=tieSwitch1,Length=0.001,Units=km,switch=T !numEQ 17190
new line.CTRR595 bus1=BMT156188789.1.2.3,bus2=BMT168190174.1.2.3,Phases=3,LineCode=tieSwitch,Length=0.001,Units=km,switch=T !numEQ 264362

new line.CTR100513 bus1=BMT156190758.1.2.3,bus2=BMT156192409.1.2.3,Phases=3,LineCode=tieSwitch,Length=0.001,Units=km,switch=T !numEQ 18699
new line.CTR100520 bus1=BMT156190841.1.2.3,bus2=BMT156191575.1.2.3,Phases=3,LineCode=tieSwitch,Length=0.001,Units=km,switch=T !numEQ 17355
new line.CTR100548 bus1=BMT156191532.1,bus2=BMT156191533.1,Phases=1,LineCode=tieSwitch1,Length=0.001,Units=km,switch=T !numEQ 17347
new line.CTR100569 bus1=BMT156190801.1.2.3,bus2=BMT156191628.1.2.3,Phases=3,LineCode=tieSwitch,Length=0.001,Units=km,switch=T !numEQ 17091
new line.CTR100576 bus1=BMT156191028.1.2.3,bus2=BMT156191448.1.2.3,Phases=3,LineCode=tieSwitch,Length=0.001,Units=km,switch=T !numEQ 17537
new line.CTR100597 bus1=BMT156190780.1.2.3,bus2=BMT174594061.1.2.3,Phases=3,LineCode=tieSwitch,Length=0.001,Units=km,switch=T !numEQ 18660
new line.CTR100604 bus1=BMT156190761.1.2.3,bus2=BMT175711274.1.2.3,Phases=3,LineCode=tieSwitch,Length=0.001,Units=km,switch=T !numEQ 18691
new line.CTR100611 bus1=BMT156190772.1.2.3,bus2=BMT156192375.1.2.3,Phases=3,LineCode=tieSwitch,Length=0.001,Units=km,switch=T !numEQ 18693
new line.CTR100618 bus1=BMT156190790.1,bus2=BMT156192322.1,Phases=1,LineCode=tieSwitch1,Length=0.001,Units=km,switch=T !numEQ 18142
new line.CTR100632 bus1=BMT156190850.1.2.3,bus2=BMT156191015.1.2.3,Phases=3,LineCode=tieSwitch,Length=0.001,Units=km,switch=T !numEQ 18509
new line.CTR100639 bus1=BMT156191548.1,bus2=BMT156191550.1,Phases=1,LineCode=tieSwitch1,Length=0.001,Units=km,switch=T !numEQ 17345
new line.CTR100646 bus1=BMT156190885.1,bus2=BMT156190888.1,Phases=1,LineCode=tieSwitch1,Length=0.001,Units=km,switch=T !numEQ 17203
new line.CTR100653 bus1=BMT156191465.1,bus2=BMT156191467.1,Phases=1,LineCode=tieSwitch1,Length=0.001,Units=km,switch=T !numEQ 18503
new line.CTR100660 bus1=BMT156191317.1,bus2=BMT156191339.1,Phases=1,LineCode=tieSwitch1,Length=0.001,Units=km,switch=T !numEQ 17184
new line.CTR100702 bus1=BMT156191373.2,bus2=BMT156191397.2,Phases=1,LineCode=tieSwitch1,Length=0.001,Units=km,switch=T !numEQ 17021
new line.CTR100723 bus1=BMT156191084.1.2.3,bus2=BMT172889073.1.2.3,Phases=3,LineCode=tieSwitch,Length=0.001,Units=km,switch=T !numEQ 17000
new line.CTR100730 bus1=BMT156191091.1.2.3,bus2=BMT164374950.1.2.3,Phases=3,LineCode=tieSwitch,Length=0.001,Units=km,switch=T !numEQ 17002
new line.CTR100744 bus1=BMT156191788.1.2.3,bus2=BMT156192012.1.2.3,Phases=3,LineCode=tieSwitch,Length=0.001,Units=km,switch=T !numEQ 18465
new line.CTR100786 bus1=BMT156190846.1.2.3,bus2=BMT156191003.1.2.3,Phases=3,LineCode=tieSwitch,Length=0.001,Units=km,switch=T !numEQ 17097
new line.CTR100807 bus1=BMT156191645.2,bus2=BMT156192315.2,Phases=1,LineCode=tieSwitch1,Length=0.001,Units=km,switch=T !numEQ 18646
new line.CTR100821 bus1=BMT156190802.2,bus2=BMT161212914.2,Phases=1,LineCode=tieSwitch1,Length=0.001,Units=km,switch=T !numEQ 17092
new line.CTR100828 bus1=BMT156190855.1.2.3,bus2=BMT163135144.1.2.3,Phases=3,LineCode=tieSwitch,Length=0.001,Units=km,switch=T !numEQ 308575
new line.CTR100835 bus1=BMT156190983.2,bus2=BMT156191000.2,Phases=1,LineCode=tieSwitch1,Length=0.001,Units=km,switch=T !numEQ 17125
new line.CTR100863 bus1=BMT156191648.1.2.3,bus2=BMT166759308.1.2.3,Phases=3,LineCode=tieSwitch,Length=0.001,Units=km,switch=T !numEQ 18654
new line.CTR100870 bus1=BMT156191651.1.2.3,bus2=BMT156192198.1.2.3,Phases=3,LineCode=tieSwitch,Length=0.001,Units=km,switch=T !numEQ 18340
new line.CTR100898 bus1=BMT156191672.1.2.3,bus2=BMT167743306.1.2.3,Phases=3,LineCode=tieSwitch,Length=0.001,Units=km,switch=T !numEQ 18649
new line.CTR100912 bus1=BMT156191719.1,bus2=BMT156192098.1,Phases=1,LineCode=tieSwitch1,Length=0.001,Units=km,switch=T !numEQ 17122
new line.CTR100919 bus1=BMT156191725.1.2.3,bus2=BMT170131253.1.2.3,Phases=3,LineCode=tieSwitch,Length=0.001,Units=km,switch=T !numEQ 18486
new line.CTR100926 bus1=BMT173169168.2,bus2=BMT156192234.2,Phases=1,LineCode=tieSwitch1,Length=0.001,Units=km,switch=T !numEQ 18641
new line.CTR100933 bus1=BMT156191784.2,bus2=BMT156192080.2,Phases=1,LineCode=tieSwitch1,Length=0.001,Units=km,switch=T !numEQ 18491
new line.CTR100954 bus1=BMT156191787.1.2.3,bus2=BMT156192017.1.2.3,Phases=3,LineCode=tieSwitch,Length=0.001,Units=km,switch=T !numEQ 18478
new line.CTR100982 bus1=BMT156191826.1.2.3,bus2=BMT161194619.1.2.3,Phases=3,LineCode=tieSwitch,Length=0.001,Units=km,switch=T !numEQ 18490
new line.CTR101003 bus1=BMT156191850.1.2.3,bus2=BMT156191979.1.2.3,Phases=3,LineCode=tieSwitch,Length=0.001,Units=km,switch=T !numEQ 17087
new line.CTR101024 bus1=BMT156192031.2,bus2=BMT168375977.2,Phases=1,LineCode=tieSwitch1,Length=0.001,Units=km,switch=T !numEQ 18474
new line.CTR101045 bus1=BMT156192385.1.2.3,bus2=BMT156192387.1.2.3,Phases=3,LineCode=tieSwitch,Length=0.001,Units=km,switch=T !numEQ 17240
new line.CTR127379 bus1=BMT165670960.2,bus2=BMT165670982.2,Phases=1,LineCode=tieSwitch1,Length=0.001,Units=km,switch=T !numEQ 16915
new line.CTR145138 bus1=BMT156191987.1.2.3,bus2=BMT156191988.1.2.3,Phases=3,LineCode=tieSwitch,Length=0.001,Units=km,switch=T !numEQ 18460
new line.CTR166397 bus1=BMT156191093.1.2.3,bus2=BMT156191266.1.2.3,Phases=3,LineCode=tieSwitch,Length=0.001,Units=km,switch=T !numEQ 17001
new line.CTR17332 bus1=BMT156191077.1.2.3,bus2=BMT156191309.1.2.3,Phases=3,LineCode=tieSwitch,Length=0.001,Units=km,switch=T !numEQ 17003
new line.CTR17367 bus1=BMT156191678.2,bus2=BMT156192159.2,Phases=1,LineCode=tieSwitch1,Length=0.001,Units=km,switch=T !numEQ 18485
new line.CTR17402 bus1=BMT156190775.2,bus2=BMT156192363.2,Phases=1,LineCode=tieSwitch1,Length=0.001,Units=km,switch=T !numEQ 18690
new line.CTR17409 bus1=BMT156190766.3,bus2=BMT156192379.3,Phases=1,LineCode=tieSwitch1,Length=0.001,Units=km,switch=T !numEQ 18694
new line.CTR17416 bus1=BMT156190781.1.2.3,bus2=BMT161665294.1.2.3,Phases=3,LineCode=tieSwitch,Length=0.001,Units=km,switch=T !numEQ 18700
new line.CTR17444 bus1=BMT156192332.1.2.3,bus2=BMT156192338.1.2.3,Phases=3,LineCode=tieSwitch,Length=0.001,Units=km,switch=T !numEQ 127691
new line.CTR17458 bus1=BMT156190797.1,bus2=BMT156191631.1,Phases=1,LineCode=tieSwitch1,Length=0.001,Units=km,switch=T !numEQ 18150
...